* Applied Vacuum Engineering (AVE) - SPICE Netlist
* Element: Cerium-140 (Z=58, A=140)
* Auto-generated topological mutual impedance array
* Nodes: 140



* -----------------------------------------------------------------
* NUCLEON (Baseline 6^3_2 Topological Defect)
* -----------------------------------------------------------------
.SUBCKT NUCLEON IN OUT
L_CORE IN OUT 1uH
C_CORE IN OUT 1pF
.ENDS NUCLEON



* -----------------------------------------------------------------
* MACROSCOPIC TOPOLOGY (Nucleon Array)
* -----------------------------------------------------------------
V_STIM NODE_1 0 AC 1 PULSE(0 100k 10n 1n 1n 50n 100n)

X_NUC_1 NODE_1 0 NUCLEON
X_NUC_2 NODE_2 0 NUCLEON
X_NUC_3 NODE_3 0 NUCLEON
X_NUC_4 NODE_4 0 NUCLEON
X_NUC_5 NODE_5 0 NUCLEON
X_NUC_6 NODE_6 0 NUCLEON
X_NUC_7 NODE_7 0 NUCLEON
X_NUC_8 NODE_8 0 NUCLEON
X_NUC_9 NODE_9 0 NUCLEON
X_NUC_10 NODE_10 0 NUCLEON
X_NUC_11 NODE_11 0 NUCLEON
X_NUC_12 NODE_12 0 NUCLEON
X_NUC_13 NODE_13 0 NUCLEON
X_NUC_14 NODE_14 0 NUCLEON
X_NUC_15 NODE_15 0 NUCLEON
X_NUC_16 NODE_16 0 NUCLEON
X_NUC_17 NODE_17 0 NUCLEON
X_NUC_18 NODE_18 0 NUCLEON
X_NUC_19 NODE_19 0 NUCLEON
X_NUC_20 NODE_20 0 NUCLEON
X_NUC_21 NODE_21 0 NUCLEON
X_NUC_22 NODE_22 0 NUCLEON
X_NUC_23 NODE_23 0 NUCLEON
X_NUC_24 NODE_24 0 NUCLEON
X_NUC_25 NODE_25 0 NUCLEON
X_NUC_26 NODE_26 0 NUCLEON
X_NUC_27 NODE_27 0 NUCLEON
X_NUC_28 NODE_28 0 NUCLEON
X_NUC_29 NODE_29 0 NUCLEON
X_NUC_30 NODE_30 0 NUCLEON
X_NUC_31 NODE_31 0 NUCLEON
X_NUC_32 NODE_32 0 NUCLEON
X_NUC_33 NODE_33 0 NUCLEON
X_NUC_34 NODE_34 0 NUCLEON
X_NUC_35 NODE_35 0 NUCLEON
X_NUC_36 NODE_36 0 NUCLEON
X_NUC_37 NODE_37 0 NUCLEON
X_NUC_38 NODE_38 0 NUCLEON
X_NUC_39 NODE_39 0 NUCLEON
X_NUC_40 NODE_40 0 NUCLEON
X_NUC_41 NODE_41 0 NUCLEON
X_NUC_42 NODE_42 0 NUCLEON
X_NUC_43 NODE_43 0 NUCLEON
X_NUC_44 NODE_44 0 NUCLEON
X_NUC_45 NODE_45 0 NUCLEON
X_NUC_46 NODE_46 0 NUCLEON
X_NUC_47 NODE_47 0 NUCLEON
X_NUC_48 NODE_48 0 NUCLEON
X_NUC_49 NODE_49 0 NUCLEON
X_NUC_50 NODE_50 0 NUCLEON
X_NUC_51 NODE_51 0 NUCLEON
X_NUC_52 NODE_52 0 NUCLEON
X_NUC_53 NODE_53 0 NUCLEON
X_NUC_54 NODE_54 0 NUCLEON
X_NUC_55 NODE_55 0 NUCLEON
X_NUC_56 NODE_56 0 NUCLEON
X_NUC_57 NODE_57 0 NUCLEON
X_NUC_58 NODE_58 0 NUCLEON
X_NUC_59 NODE_59 0 NUCLEON
X_NUC_60 NODE_60 0 NUCLEON
X_NUC_61 NODE_61 0 NUCLEON
X_NUC_62 NODE_62 0 NUCLEON
X_NUC_63 NODE_63 0 NUCLEON
X_NUC_64 NODE_64 0 NUCLEON
X_NUC_65 NODE_65 0 NUCLEON
X_NUC_66 NODE_66 0 NUCLEON
X_NUC_67 NODE_67 0 NUCLEON
X_NUC_68 NODE_68 0 NUCLEON
X_NUC_69 NODE_69 0 NUCLEON
X_NUC_70 NODE_70 0 NUCLEON
X_NUC_71 NODE_71 0 NUCLEON
X_NUC_72 NODE_72 0 NUCLEON
X_NUC_73 NODE_73 0 NUCLEON
X_NUC_74 NODE_74 0 NUCLEON
X_NUC_75 NODE_75 0 NUCLEON
X_NUC_76 NODE_76 0 NUCLEON
X_NUC_77 NODE_77 0 NUCLEON
X_NUC_78 NODE_78 0 NUCLEON
X_NUC_79 NODE_79 0 NUCLEON
X_NUC_80 NODE_80 0 NUCLEON
X_NUC_81 NODE_81 0 NUCLEON
X_NUC_82 NODE_82 0 NUCLEON
X_NUC_83 NODE_83 0 NUCLEON
X_NUC_84 NODE_84 0 NUCLEON
X_NUC_85 NODE_85 0 NUCLEON
X_NUC_86 NODE_86 0 NUCLEON
X_NUC_87 NODE_87 0 NUCLEON
X_NUC_88 NODE_88 0 NUCLEON
X_NUC_89 NODE_89 0 NUCLEON
X_NUC_90 NODE_90 0 NUCLEON
X_NUC_91 NODE_91 0 NUCLEON
X_NUC_92 NODE_92 0 NUCLEON
X_NUC_93 NODE_93 0 NUCLEON
X_NUC_94 NODE_94 0 NUCLEON
X_NUC_95 NODE_95 0 NUCLEON
X_NUC_96 NODE_96 0 NUCLEON
X_NUC_97 NODE_97 0 NUCLEON
X_NUC_98 NODE_98 0 NUCLEON
X_NUC_99 NODE_99 0 NUCLEON
X_NUC_100 NODE_100 0 NUCLEON
X_NUC_101 NODE_101 0 NUCLEON
X_NUC_102 NODE_102 0 NUCLEON
X_NUC_103 NODE_103 0 NUCLEON
X_NUC_104 NODE_104 0 NUCLEON
X_NUC_105 NODE_105 0 NUCLEON
X_NUC_106 NODE_106 0 NUCLEON
X_NUC_107 NODE_107 0 NUCLEON
X_NUC_108 NODE_108 0 NUCLEON
X_NUC_109 NODE_109 0 NUCLEON
X_NUC_110 NODE_110 0 NUCLEON
X_NUC_111 NODE_111 0 NUCLEON
X_NUC_112 NODE_112 0 NUCLEON
X_NUC_113 NODE_113 0 NUCLEON
X_NUC_114 NODE_114 0 NUCLEON
X_NUC_115 NODE_115 0 NUCLEON
X_NUC_116 NODE_116 0 NUCLEON
X_NUC_117 NODE_117 0 NUCLEON
X_NUC_118 NODE_118 0 NUCLEON
X_NUC_119 NODE_119 0 NUCLEON
X_NUC_120 NODE_120 0 NUCLEON
X_NUC_121 NODE_121 0 NUCLEON
X_NUC_122 NODE_122 0 NUCLEON
X_NUC_123 NODE_123 0 NUCLEON
X_NUC_124 NODE_124 0 NUCLEON
X_NUC_125 NODE_125 0 NUCLEON
X_NUC_126 NODE_126 0 NUCLEON
X_NUC_127 NODE_127 0 NUCLEON
X_NUC_128 NODE_128 0 NUCLEON
X_NUC_129 NODE_129 0 NUCLEON
X_NUC_130 NODE_130 0 NUCLEON
X_NUC_131 NODE_131 0 NUCLEON
X_NUC_132 NODE_132 0 NUCLEON
X_NUC_133 NODE_133 0 NUCLEON
X_NUC_134 NODE_134 0 NUCLEON
X_NUC_135 NODE_135 0 NUCLEON
X_NUC_136 NODE_136 0 NUCLEON
X_NUC_137 NODE_137 0 NUCLEON
X_NUC_138 NODE_138 0 NUCLEON
X_NUC_139 NODE_139 0 NUCLEON
X_NUC_140 NODE_140 0 NUCLEON


* -----------------------------------------------------------------
* SPATIAL MUTUAL INDUCTANCE (K-FACTORS)
* -----------------------------------------------------------------
K_1 X_NUC_1.L_CORE X_NUC_2.L_CORE 0.207973
K_2 X_NUC_1.L_CORE X_NUC_3.L_CORE 0.207973
K_3 X_NUC_1.L_CORE X_NUC_4.L_CORE 0.207973
K_4 X_NUC_1.L_CORE X_NUC_5.L_CORE 0.006000
K_5 X_NUC_1.L_CORE X_NUC_6.L_CORE 0.005841
K_6 X_NUC_1.L_CORE X_NUC_7.L_CORE 0.005880
K_7 X_NUC_1.L_CORE X_NUC_8.L_CORE 0.005931
K_8 X_NUC_1.L_CORE X_NUC_9.L_CORE 0.006479
K_9 X_NUC_1.L_CORE X_NUC_10.L_CORE 0.006558
K_10 X_NUC_1.L_CORE X_NUC_11.L_CORE 0.006396
K_11 X_NUC_1.L_CORE X_NUC_12.L_CORE 0.006576
K_12 X_NUC_1.L_CORE X_NUC_13.L_CORE 0.006933
K_13 X_NUC_1.L_CORE X_NUC_14.L_CORE 0.006823
K_14 X_NUC_1.L_CORE X_NUC_15.L_CORE 0.006909
K_15 X_NUC_1.L_CORE X_NUC_16.L_CORE 0.006732
K_16 X_NUC_1.L_CORE X_NUC_17.L_CORE 0.003898
K_17 X_NUC_1.L_CORE X_NUC_18.L_CORE 0.003855
K_18 X_NUC_1.L_CORE X_NUC_19.L_CORE 0.003836
K_19 X_NUC_1.L_CORE X_NUC_20.L_CORE 0.003890
K_20 X_NUC_1.L_CORE X_NUC_21.L_CORE 0.005880
K_21 X_NUC_1.L_CORE X_NUC_22.L_CORE 0.006025
K_22 X_NUC_1.L_CORE X_NUC_23.L_CORE 0.005887
K_23 X_NUC_1.L_CORE X_NUC_24.L_CORE 0.005890
K_24 X_NUC_1.L_CORE X_NUC_25.L_CORE 0.003884
K_25 X_NUC_1.L_CORE X_NUC_26.L_CORE 0.003820
K_26 X_NUC_1.L_CORE X_NUC_27.L_CORE 0.003839
K_27 X_NUC_1.L_CORE X_NUC_28.L_CORE 0.003823
K_28 X_NUC_1.L_CORE X_NUC_29.L_CORE 0.003516
K_29 X_NUC_1.L_CORE X_NUC_30.L_CORE 0.003520
K_30 X_NUC_1.L_CORE X_NUC_31.L_CORE 0.003474
K_31 X_NUC_1.L_CORE X_NUC_32.L_CORE 0.003526
K_32 X_NUC_1.L_CORE X_NUC_33.L_CORE 0.004572
K_33 X_NUC_1.L_CORE X_NUC_34.L_CORE 0.004594
K_34 X_NUC_1.L_CORE X_NUC_35.L_CORE 0.004574
K_35 X_NUC_1.L_CORE X_NUC_36.L_CORE 0.004502
K_36 X_NUC_1.L_CORE X_NUC_37.L_CORE 0.002974
K_37 X_NUC_1.L_CORE X_NUC_38.L_CORE 0.002941
K_38 X_NUC_1.L_CORE X_NUC_39.L_CORE 0.002935
K_39 X_NUC_1.L_CORE X_NUC_40.L_CORE 0.002952
K_40 X_NUC_1.L_CORE X_NUC_41.L_CORE 0.003548
K_41 X_NUC_1.L_CORE X_NUC_42.L_CORE 0.003587
K_42 X_NUC_1.L_CORE X_NUC_43.L_CORE 0.003527
K_43 X_NUC_1.L_CORE X_NUC_44.L_CORE 0.003554
K_44 X_NUC_1.L_CORE X_NUC_45.L_CORE 0.003303
K_45 X_NUC_1.L_CORE X_NUC_46.L_CORE 0.003275
K_46 X_NUC_1.L_CORE X_NUC_47.L_CORE 0.003280
K_47 X_NUC_1.L_CORE X_NUC_48.L_CORE 0.003252
K_48 X_NUC_1.L_CORE X_NUC_49.L_CORE 0.002692
K_49 X_NUC_1.L_CORE X_NUC_50.L_CORE 0.002681
K_50 X_NUC_1.L_CORE X_NUC_51.L_CORE 0.002660
K_51 X_NUC_1.L_CORE X_NUC_52.L_CORE 0.002686
K_52 X_NUC_1.L_CORE X_NUC_53.L_CORE 0.003409
K_53 X_NUC_1.L_CORE X_NUC_54.L_CORE 0.003440
K_54 X_NUC_1.L_CORE X_NUC_55.L_CORE 0.003402
K_55 X_NUC_1.L_CORE X_NUC_56.L_CORE 0.003385
K_56 X_NUC_1.L_CORE X_NUC_57.L_CORE 0.002621
K_57 X_NUC_1.L_CORE X_NUC_58.L_CORE 0.002596
K_58 X_NUC_1.L_CORE X_NUC_59.L_CORE 0.002594
K_59 X_NUC_1.L_CORE X_NUC_60.L_CORE 0.002594
K_60 X_NUC_1.L_CORE X_NUC_61.L_CORE 0.002680
K_61 X_NUC_1.L_CORE X_NUC_62.L_CORE 0.002689
K_62 X_NUC_1.L_CORE X_NUC_63.L_CORE 0.002656
K_63 X_NUC_1.L_CORE X_NUC_64.L_CORE 0.002679
K_64 X_NUC_1.L_CORE X_NUC_65.L_CORE 0.002905
K_65 X_NUC_1.L_CORE X_NUC_66.L_CORE 0.002902
K_66 X_NUC_1.L_CORE X_NUC_67.L_CORE 0.002892
K_67 X_NUC_1.L_CORE X_NUC_68.L_CORE 0.002869
K_68 X_NUC_1.L_CORE X_NUC_69.L_CORE 0.002331
K_69 X_NUC_1.L_CORE X_NUC_70.L_CORE 0.002317
K_70 X_NUC_1.L_CORE X_NUC_71.L_CORE 0.002305
K_71 X_NUC_1.L_CORE X_NUC_72.L_CORE 0.002317
K_72 X_NUC_1.L_CORE X_NUC_73.L_CORE 0.002693
K_73 X_NUC_1.L_CORE X_NUC_74.L_CORE 0.002712
K_74 X_NUC_1.L_CORE X_NUC_75.L_CORE 0.002679
K_75 X_NUC_1.L_CORE X_NUC_76.L_CORE 0.002684
K_76 X_NUC_1.L_CORE X_NUC_77.L_CORE 0.002424
K_77 X_NUC_1.L_CORE X_NUC_78.L_CORE 0.002409
K_78 X_NUC_1.L_CORE X_NUC_79.L_CORE 0.002404
K_79 X_NUC_1.L_CORE X_NUC_80.L_CORE 0.002397
K_80 X_NUC_1.L_CORE X_NUC_81.L_CORE 0.002256
K_81 X_NUC_1.L_CORE X_NUC_82.L_CORE 0.002255
K_82 X_NUC_1.L_CORE X_NUC_83.L_CORE 0.002235
K_83 X_NUC_1.L_CORE X_NUC_84.L_CORE 0.002250
K_84 X_NUC_1.L_CORE X_NUC_85.L_CORE 0.002524
K_85 X_NUC_1.L_CORE X_NUC_86.L_CORE 0.002530
K_86 X_NUC_1.L_CORE X_NUC_87.L_CORE 0.002512
K_87 X_NUC_1.L_CORE X_NUC_88.L_CORE 0.002502
K_88 X_NUC_1.L_CORE X_NUC_89.L_CORE 0.002149
K_89 X_NUC_1.L_CORE X_NUC_90.L_CORE 0.002137
K_90 X_NUC_1.L_CORE X_NUC_91.L_CORE 0.002128
K_91 X_NUC_1.L_CORE X_NUC_92.L_CORE 0.002132
K_92 X_NUC_1.L_CORE X_NUC_93.L_CORE 0.002254
K_93 X_NUC_1.L_CORE X_NUC_94.L_CORE 0.002261
K_94 X_NUC_1.L_CORE X_NUC_95.L_CORE 0.002238
K_95 X_NUC_1.L_CORE X_NUC_96.L_CORE 0.002246
K_96 X_NUC_1.L_CORE X_NUC_97.L_CORE 0.002241
K_97 X_NUC_1.L_CORE X_NUC_98.L_CORE 0.002236
K_98 X_NUC_1.L_CORE X_NUC_99.L_CORE 0.002226
K_99 X_NUC_1.L_CORE X_NUC_100.L_CORE 0.002220
K_100 X_NUC_1.L_CORE X_NUC_101.L_CORE 0.002042
K_101 X_NUC_1.L_CORE X_NUC_102.L_CORE 0.002037
K_102 X_NUC_1.L_CORE X_NUC_103.L_CORE 0.002023
K_103 X_NUC_1.L_CORE X_NUC_104.L_CORE 0.002031
K_104 X_NUC_1.L_CORE X_NUC_105.L_CORE 0.002177
K_105 X_NUC_1.L_CORE X_NUC_106.L_CORE 0.002181
K_106 X_NUC_1.L_CORE X_NUC_107.L_CORE 0.002164
K_107 X_NUC_1.L_CORE X_NUC_108.L_CORE 0.002163
K_108 X_NUC_1.L_CORE X_NUC_109.L_CORE 0.002033
K_109 X_NUC_1.L_CORE X_NUC_110.L_CORE 0.002027
K_110 X_NUC_1.L_CORE X_NUC_111.L_CORE 0.002017
K_111 X_NUC_1.L_CORE X_NUC_112.L_CORE 0.002017
K_112 X_NUC_1.L_CORE X_NUC_113.L_CORE 0.002010
K_113 X_NUC_1.L_CORE X_NUC_114.L_CORE 0.002009
K_114 X_NUC_1.L_CORE X_NUC_115.L_CORE 0.001994
K_115 X_NUC_1.L_CORE X_NUC_116.L_CORE 0.001998
K_116 X_NUC_1.L_CORE X_NUC_117.L_CORE 0.034315
K_117 X_NUC_1.L_CORE X_NUC_118.L_CORE 0.005196
K_118 X_NUC_1.L_CORE X_NUC_119.L_CORE 0.005583
K_119 X_NUC_1.L_CORE X_NUC_120.L_CORE 0.005731
K_120 X_NUC_1.L_CORE X_NUC_121.L_CORE 0.003396
K_121 X_NUC_1.L_CORE X_NUC_122.L_CORE 0.004887
K_122 X_NUC_1.L_CORE X_NUC_123.L_CORE 0.003328
K_123 X_NUC_1.L_CORE X_NUC_124.L_CORE 0.003048
K_124 X_NUC_1.L_CORE X_NUC_125.L_CORE 0.003781
K_125 X_NUC_1.L_CORE X_NUC_126.L_CORE 0.002583
K_126 X_NUC_1.L_CORE X_NUC_127.L_CORE 0.003016
K_127 X_NUC_1.L_CORE X_NUC_128.L_CORE 0.002797
K_128 X_NUC_1.L_CORE X_NUC_129.L_CORE 0.002344
K_129 X_NUC_1.L_CORE X_NUC_130.L_CORE 0.002836
K_130 X_NUC_1.L_CORE X_NUC_131.L_CORE 0.002265
K_131 X_NUC_1.L_CORE X_NUC_132.L_CORE 0.002306
K_132 X_NUC_1.L_CORE X_NUC_133.L_CORE 0.002429
K_133 X_NUC_1.L_CORE X_NUC_134.L_CORE 0.002037
K_134 X_NUC_1.L_CORE X_NUC_135.L_CORE 0.002261
K_135 X_NUC_1.L_CORE X_NUC_136.L_CORE 0.002074
K_136 X_NUC_1.L_CORE X_NUC_137.L_CORE 0.001967
K_137 X_NUC_1.L_CORE X_NUC_138.L_CORE 0.002083
K_138 X_NUC_1.L_CORE X_NUC_139.L_CORE 0.001889
K_139 X_NUC_1.L_CORE X_NUC_140.L_CORE 0.001912
K_140 X_NUC_2.L_CORE X_NUC_3.L_CORE 0.207973
K_141 X_NUC_2.L_CORE X_NUC_4.L_CORE 0.207973
K_142 X_NUC_2.L_CORE X_NUC_5.L_CORE 0.006168
K_143 X_NUC_2.L_CORE X_NUC_6.L_CORE 0.006000
K_144 X_NUC_2.L_CORE X_NUC_7.L_CORE 0.006041
K_145 X_NUC_2.L_CORE X_NUC_8.L_CORE 0.006096
K_146 X_NUC_2.L_CORE X_NUC_9.L_CORE 0.006396
K_147 X_NUC_2.L_CORE X_NUC_10.L_CORE 0.006479
K_148 X_NUC_2.L_CORE X_NUC_11.L_CORE 0.006320
K_149 X_NUC_2.L_CORE X_NUC_12.L_CORE 0.006493
K_150 X_NUC_2.L_CORE X_NUC_13.L_CORE 0.007040
K_151 X_NUC_2.L_CORE X_NUC_14.L_CORE 0.006933
K_152 X_NUC_2.L_CORE X_NUC_15.L_CORE 0.007019
K_153 X_NUC_2.L_CORE X_NUC_16.L_CORE 0.006833
K_154 X_NUC_2.L_CORE X_NUC_17.L_CORE 0.003941
K_155 X_NUC_2.L_CORE X_NUC_18.L_CORE 0.003898
K_156 X_NUC_2.L_CORE X_NUC_19.L_CORE 0.003877
K_157 X_NUC_2.L_CORE X_NUC_20.L_CORE 0.003933
K_158 X_NUC_2.L_CORE X_NUC_21.L_CORE 0.005739
K_159 X_NUC_2.L_CORE X_NUC_22.L_CORE 0.005880
K_160 X_NUC_2.L_CORE X_NUC_23.L_CORE 0.005749
K_161 X_NUC_2.L_CORE X_NUC_24.L_CORE 0.005752
K_162 X_NUC_2.L_CORE X_NUC_25.L_CORE 0.003949
K_163 X_NUC_2.L_CORE X_NUC_26.L_CORE 0.003884
K_164 X_NUC_2.L_CORE X_NUC_27.L_CORE 0.003903
K_165 X_NUC_2.L_CORE X_NUC_28.L_CORE 0.003886
K_166 X_NUC_2.L_CORE X_NUC_29.L_CORE 0.003511
K_167 X_NUC_2.L_CORE X_NUC_30.L_CORE 0.003516
K_168 X_NUC_2.L_CORE X_NUC_31.L_CORE 0.003469
K_169 X_NUC_2.L_CORE X_NUC_32.L_CORE 0.003522
K_170 X_NUC_2.L_CORE X_NUC_33.L_CORE 0.004548
K_171 X_NUC_2.L_CORE X_NUC_34.L_CORE 0.004572
K_172 X_NUC_2.L_CORE X_NUC_35.L_CORE 0.004552
K_173 X_NUC_2.L_CORE X_NUC_36.L_CORE 0.004480
K_174 X_NUC_2.L_CORE X_NUC_37.L_CORE 0.003008
K_175 X_NUC_2.L_CORE X_NUC_38.L_CORE 0.002974
K_176 X_NUC_2.L_CORE X_NUC_39.L_CORE 0.002968
K_177 X_NUC_2.L_CORE X_NUC_40.L_CORE 0.002985
K_178 X_NUC_2.L_CORE X_NUC_41.L_CORE 0.003509
K_179 X_NUC_2.L_CORE X_NUC_42.L_CORE 0.003548
K_180 X_NUC_2.L_CORE X_NUC_43.L_CORE 0.003489
K_181 X_NUC_2.L_CORE X_NUC_44.L_CORE 0.003516
K_182 X_NUC_2.L_CORE X_NUC_45.L_CORE 0.003331
K_183 X_NUC_2.L_CORE X_NUC_46.L_CORE 0.003303
K_184 X_NUC_2.L_CORE X_NUC_47.L_CORE 0.003308
K_185 X_NUC_2.L_CORE X_NUC_48.L_CORE 0.003278
K_186 X_NUC_2.L_CORE X_NUC_49.L_CORE 0.002702
K_187 X_NUC_2.L_CORE X_NUC_50.L_CORE 0.002692
K_188 X_NUC_2.L_CORE X_NUC_51.L_CORE 0.002670
K_189 X_NUC_2.L_CORE X_NUC_52.L_CORE 0.002697
K_190 X_NUC_2.L_CORE X_NUC_53.L_CORE 0.003377
K_191 X_NUC_2.L_CORE X_NUC_54.L_CORE 0.003409
K_192 X_NUC_2.L_CORE X_NUC_55.L_CORE 0.003371
K_193 X_NUC_2.L_CORE X_NUC_56.L_CORE 0.003355
K_194 X_NUC_2.L_CORE X_NUC_57.L_CORE 0.002647
K_195 X_NUC_2.L_CORE X_NUC_58.L_CORE 0.002621
K_196 X_NUC_2.L_CORE X_NUC_59.L_CORE 0.002619
K_197 X_NUC_2.L_CORE X_NUC_60.L_CORE 0.002619
K_198 X_NUC_2.L_CORE X_NUC_61.L_CORE 0.002670
K_199 X_NUC_2.L_CORE X_NUC_62.L_CORE 0.002680
K_200 X_NUC_2.L_CORE X_NUC_63.L_CORE 0.002647
K_201 X_NUC_2.L_CORE X_NUC_64.L_CORE 0.002669
K_202 X_NUC_2.L_CORE X_NUC_65.L_CORE 0.002908
K_203 X_NUC_2.L_CORE X_NUC_66.L_CORE 0.002905
K_204 X_NUC_2.L_CORE X_NUC_67.L_CORE 0.002895
K_205 X_NUC_2.L_CORE X_NUC_68.L_CORE 0.002872
K_206 X_NUC_2.L_CORE X_NUC_69.L_CORE 0.002344
K_207 X_NUC_2.L_CORE X_NUC_70.L_CORE 0.002331
K_208 X_NUC_2.L_CORE X_NUC_71.L_CORE 0.002318
K_209 X_NUC_2.L_CORE X_NUC_72.L_CORE 0.002331
K_210 X_NUC_2.L_CORE X_NUC_73.L_CORE 0.002675
K_211 X_NUC_2.L_CORE X_NUC_74.L_CORE 0.002693
K_212 X_NUC_2.L_CORE X_NUC_75.L_CORE 0.002661
K_213 X_NUC_2.L_CORE X_NUC_76.L_CORE 0.002666
K_214 X_NUC_2.L_CORE X_NUC_77.L_CORE 0.002439
K_215 X_NUC_2.L_CORE X_NUC_78.L_CORE 0.002424
K_216 X_NUC_2.L_CORE X_NUC_79.L_CORE 0.002419
K_217 X_NUC_2.L_CORE X_NUC_80.L_CORE 0.002412
K_218 X_NUC_2.L_CORE X_NUC_81.L_CORE 0.002258
K_219 X_NUC_2.L_CORE X_NUC_82.L_CORE 0.002256
K_220 X_NUC_2.L_CORE X_NUC_83.L_CORE 0.002236
K_221 X_NUC_2.L_CORE X_NUC_84.L_CORE 0.002251
K_222 X_NUC_2.L_CORE X_NUC_85.L_CORE 0.002517
K_223 X_NUC_2.L_CORE X_NUC_86.L_CORE 0.002524
K_224 X_NUC_2.L_CORE X_NUC_87.L_CORE 0.002505
K_225 X_NUC_2.L_CORE X_NUC_88.L_CORE 0.002496
K_226 X_NUC_2.L_CORE X_NUC_89.L_CORE 0.002161
K_227 X_NUC_2.L_CORE X_NUC_90.L_CORE 0.002149
K_228 X_NUC_2.L_CORE X_NUC_91.L_CORE 0.002140
K_229 X_NUC_2.L_CORE X_NUC_92.L_CORE 0.002144
K_230 X_NUC_2.L_CORE X_NUC_93.L_CORE 0.002247
K_231 X_NUC_2.L_CORE X_NUC_94.L_CORE 0.002254
K_232 X_NUC_2.L_CORE X_NUC_95.L_CORE 0.002231
K_233 X_NUC_2.L_CORE X_NUC_96.L_CORE 0.002239
K_234 X_NUC_2.L_CORE X_NUC_97.L_CORE 0.002246
K_235 X_NUC_2.L_CORE X_NUC_98.L_CORE 0.002241
K_236 X_NUC_2.L_CORE X_NUC_99.L_CORE 0.002231
K_237 X_NUC_2.L_CORE X_NUC_100.L_CORE 0.002225
K_238 X_NUC_2.L_CORE X_NUC_101.L_CORE 0.002047
K_239 X_NUC_2.L_CORE X_NUC_102.L_CORE 0.002042
K_240 X_NUC_2.L_CORE X_NUC_103.L_CORE 0.002028
K_241 X_NUC_2.L_CORE X_NUC_104.L_CORE 0.002036
K_242 X_NUC_2.L_CORE X_NUC_105.L_CORE 0.002173
K_243 X_NUC_2.L_CORE X_NUC_106.L_CORE 0.002177
K_244 X_NUC_2.L_CORE X_NUC_107.L_CORE 0.002159
K_245 X_NUC_2.L_CORE X_NUC_108.L_CORE 0.002159
K_246 X_NUC_2.L_CORE X_NUC_109.L_CORE 0.002039
K_247 X_NUC_2.L_CORE X_NUC_110.L_CORE 0.002033
K_248 X_NUC_2.L_CORE X_NUC_111.L_CORE 0.002023
K_249 X_NUC_2.L_CORE X_NUC_112.L_CORE 0.002023
K_250 X_NUC_2.L_CORE X_NUC_113.L_CORE 0.002011
K_251 X_NUC_2.L_CORE X_NUC_114.L_CORE 0.002010
K_252 X_NUC_2.L_CORE X_NUC_115.L_CORE 0.001995
K_253 X_NUC_2.L_CORE X_NUC_116.L_CORE 0.001999
K_254 X_NUC_2.L_CORE X_NUC_117.L_CORE 0.032410
K_255 X_NUC_2.L_CORE X_NUC_118.L_CORE 0.005324
K_256 X_NUC_2.L_CORE X_NUC_119.L_CORE 0.005512
K_257 X_NUC_2.L_CORE X_NUC_120.L_CORE 0.005798
K_258 X_NUC_2.L_CORE X_NUC_121.L_CORE 0.003429
K_259 X_NUC_2.L_CORE X_NUC_122.L_CORE 0.004786
K_260 X_NUC_2.L_CORE X_NUC_123.L_CORE 0.003376
K_261 X_NUC_2.L_CORE X_NUC_124.L_CORE 0.003044
K_262 X_NUC_2.L_CORE X_NUC_125.L_CORE 0.003763
K_263 X_NUC_2.L_CORE X_NUC_126.L_CORE 0.002608
K_264 X_NUC_2.L_CORE X_NUC_127.L_CORE 0.002988
K_265 X_NUC_2.L_CORE X_NUC_128.L_CORE 0.002816
K_266 X_NUC_2.L_CORE X_NUC_129.L_CORE 0.002351
K_267 X_NUC_2.L_CORE X_NUC_130.L_CORE 0.002816
K_268 X_NUC_2.L_CORE X_NUC_131.L_CORE 0.002283
K_269 X_NUC_2.L_CORE X_NUC_132.L_CORE 0.002299
K_270 X_NUC_2.L_CORE X_NUC_133.L_CORE 0.002431
K_271 X_NUC_2.L_CORE X_NUC_134.L_CORE 0.002046
K_272 X_NUC_2.L_CORE X_NUC_135.L_CORE 0.002250
K_273 X_NUC_2.L_CORE X_NUC_136.L_CORE 0.002083
K_274 X_NUC_2.L_CORE X_NUC_137.L_CORE 0.001968
K_275 X_NUC_2.L_CORE X_NUC_138.L_CORE 0.002081
K_276 X_NUC_2.L_CORE X_NUC_139.L_CORE 0.001895
K_277 X_NUC_2.L_CORE X_NUC_140.L_CORE 0.001911
K_278 X_NUC_3.L_CORE X_NUC_4.L_CORE 0.207973
K_279 X_NUC_3.L_CORE X_NUC_5.L_CORE 0.006123
K_280 X_NUC_3.L_CORE X_NUC_6.L_CORE 0.005956
K_281 X_NUC_3.L_CORE X_NUC_7.L_CORE 0.006000
K_282 X_NUC_3.L_CORE X_NUC_8.L_CORE 0.006051
K_283 X_NUC_3.L_CORE X_NUC_9.L_CORE 0.006558
K_284 X_NUC_3.L_CORE X_NUC_10.L_CORE 0.006644
K_285 X_NUC_3.L_CORE X_NUC_11.L_CORE 0.006479
K_286 X_NUC_3.L_CORE X_NUC_12.L_CORE 0.006662
K_287 X_NUC_3.L_CORE X_NUC_13.L_CORE 0.006949
K_288 X_NUC_3.L_CORE X_NUC_14.L_CORE 0.006842
K_289 X_NUC_3.L_CORE X_NUC_15.L_CORE 0.006933
K_290 X_NUC_3.L_CORE X_NUC_16.L_CORE 0.006750
K_291 X_NUC_3.L_CORE X_NUC_17.L_CORE 0.003962
K_292 X_NUC_3.L_CORE X_NUC_18.L_CORE 0.003918
K_293 X_NUC_3.L_CORE X_NUC_19.L_CORE 0.003898
K_294 X_NUC_3.L_CORE X_NUC_20.L_CORE 0.003954
K_295 X_NUC_3.L_CORE X_NUC_21.L_CORE 0.005867
K_296 X_NUC_3.L_CORE X_NUC_22.L_CORE 0.006015
K_297 X_NUC_3.L_CORE X_NUC_23.L_CORE 0.005880
K_298 X_NUC_3.L_CORE X_NUC_24.L_CORE 0.005881
K_299 X_NUC_3.L_CORE X_NUC_25.L_CORE 0.003928
K_300 X_NUC_3.L_CORE X_NUC_26.L_CORE 0.003864
K_301 X_NUC_3.L_CORE X_NUC_27.L_CORE 0.003884
K_302 X_NUC_3.L_CORE X_NUC_28.L_CORE 0.003867
K_303 X_NUC_3.L_CORE X_NUC_29.L_CORE 0.003559
K_304 X_NUC_3.L_CORE X_NUC_30.L_CORE 0.003563
K_305 X_NUC_3.L_CORE X_NUC_31.L_CORE 0.003516
K_306 X_NUC_3.L_CORE X_NUC_32.L_CORE 0.003570
K_307 X_NUC_3.L_CORE X_NUC_33.L_CORE 0.004567
K_308 X_NUC_3.L_CORE X_NUC_34.L_CORE 0.004591
K_309 X_NUC_3.L_CORE X_NUC_35.L_CORE 0.004572
K_310 X_NUC_3.L_CORE X_NUC_36.L_CORE 0.004499
K_311 X_NUC_3.L_CORE X_NUC_37.L_CORE 0.003014
K_312 X_NUC_3.L_CORE X_NUC_38.L_CORE 0.002980
K_313 X_NUC_3.L_CORE X_NUC_39.L_CORE 0.002974
K_314 X_NUC_3.L_CORE X_NUC_40.L_CORE 0.002991
K_315 X_NUC_3.L_CORE X_NUC_41.L_CORE 0.003568
K_316 X_NUC_3.L_CORE X_NUC_42.L_CORE 0.003608
K_317 X_NUC_3.L_CORE X_NUC_43.L_CORE 0.003548
K_318 X_NUC_3.L_CORE X_NUC_44.L_CORE 0.003575
K_319 X_NUC_3.L_CORE X_NUC_45.L_CORE 0.003325
K_320 X_NUC_3.L_CORE X_NUC_46.L_CORE 0.003297
K_321 X_NUC_3.L_CORE X_NUC_47.L_CORE 0.003303
K_322 X_NUC_3.L_CORE X_NUC_48.L_CORE 0.003273
K_323 X_NUC_3.L_CORE X_NUC_49.L_CORE 0.002725
K_324 X_NUC_3.L_CORE X_NUC_50.L_CORE 0.002714
K_325 X_NUC_3.L_CORE X_NUC_51.L_CORE 0.002692
K_326 X_NUC_3.L_CORE X_NUC_52.L_CORE 0.002719
K_327 X_NUC_3.L_CORE X_NUC_53.L_CORE 0.003415
K_328 X_NUC_3.L_CORE X_NUC_54.L_CORE 0.003447
K_329 X_NUC_3.L_CORE X_NUC_55.L_CORE 0.003409
K_330 X_NUC_3.L_CORE X_NUC_56.L_CORE 0.003392
K_331 X_NUC_3.L_CORE X_NUC_57.L_CORE 0.002649
K_332 X_NUC_3.L_CORE X_NUC_58.L_CORE 0.002623
K_333 X_NUC_3.L_CORE X_NUC_59.L_CORE 0.002621
K_334 X_NUC_3.L_CORE X_NUC_60.L_CORE 0.002621
K_335 X_NUC_3.L_CORE X_NUC_61.L_CORE 0.002703
K_336 X_NUC_3.L_CORE X_NUC_62.L_CORE 0.002713
K_337 X_NUC_3.L_CORE X_NUC_63.L_CORE 0.002680
K_338 X_NUC_3.L_CORE X_NUC_64.L_CORE 0.002702
K_339 X_NUC_3.L_CORE X_NUC_65.L_CORE 0.002917
K_340 X_NUC_3.L_CORE X_NUC_66.L_CORE 0.002914
K_341 X_NUC_3.L_CORE X_NUC_67.L_CORE 0.002905
K_342 X_NUC_3.L_CORE X_NUC_68.L_CORE 0.002881
K_343 X_NUC_3.L_CORE X_NUC_69.L_CORE 0.002357
K_344 X_NUC_3.L_CORE X_NUC_70.L_CORE 0.002343
K_345 X_NUC_3.L_CORE X_NUC_71.L_CORE 0.002331
K_346 X_NUC_3.L_CORE X_NUC_72.L_CORE 0.002343
K_347 X_NUC_3.L_CORE X_NUC_73.L_CORE 0.002707
K_348 X_NUC_3.L_CORE X_NUC_74.L_CORE 0.002726
K_349 X_NUC_3.L_CORE X_NUC_75.L_CORE 0.002693
K_350 X_NUC_3.L_CORE X_NUC_76.L_CORE 0.002697
K_351 X_NUC_3.L_CORE X_NUC_77.L_CORE 0.002444
K_352 X_NUC_3.L_CORE X_NUC_78.L_CORE 0.002428
K_353 X_NUC_3.L_CORE X_NUC_79.L_CORE 0.002424
K_354 X_NUC_3.L_CORE X_NUC_80.L_CORE 0.002416
K_355 X_NUC_3.L_CORE X_NUC_81.L_CORE 0.002278
K_356 X_NUC_3.L_CORE X_NUC_82.L_CORE 0.002277
K_357 X_NUC_3.L_CORE X_NUC_83.L_CORE 0.002256
K_358 X_NUC_3.L_CORE X_NUC_84.L_CORE 0.002272
K_359 X_NUC_3.L_CORE X_NUC_85.L_CORE 0.002535
K_360 X_NUC_3.L_CORE X_NUC_86.L_CORE 0.002542
K_361 X_NUC_3.L_CORE X_NUC_87.L_CORE 0.002524
K_362 X_NUC_3.L_CORE X_NUC_88.L_CORE 0.002514
K_363 X_NUC_3.L_CORE X_NUC_89.L_CORE 0.002170
K_364 X_NUC_3.L_CORE X_NUC_90.L_CORE 0.002157
K_365 X_NUC_3.L_CORE X_NUC_91.L_CORE 0.002149
K_366 X_NUC_3.L_CORE X_NUC_92.L_CORE 0.002152
K_367 X_NUC_3.L_CORE X_NUC_93.L_CORE 0.002271
K_368 X_NUC_3.L_CORE X_NUC_94.L_CORE 0.002277
K_369 X_NUC_3.L_CORE X_NUC_95.L_CORE 0.002254
K_370 X_NUC_3.L_CORE X_NUC_96.L_CORE 0.002262
K_371 X_NUC_3.L_CORE X_NUC_97.L_CORE 0.002256
K_372 X_NUC_3.L_CORE X_NUC_98.L_CORE 0.002251
K_373 X_NUC_3.L_CORE X_NUC_99.L_CORE 0.002241
K_374 X_NUC_3.L_CORE X_NUC_100.L_CORE 0.002234
K_375 X_NUC_3.L_CORE X_NUC_101.L_CORE 0.002061
K_376 X_NUC_3.L_CORE X_NUC_102.L_CORE 0.002056
K_377 X_NUC_3.L_CORE X_NUC_103.L_CORE 0.002042
K_378 X_NUC_3.L_CORE X_NUC_104.L_CORE 0.002050
K_379 X_NUC_3.L_CORE X_NUC_105.L_CORE 0.002191
K_380 X_NUC_3.L_CORE X_NUC_106.L_CORE 0.002195
K_381 X_NUC_3.L_CORE X_NUC_107.L_CORE 0.002177
K_382 X_NUC_3.L_CORE X_NUC_108.L_CORE 0.002177
K_383 X_NUC_3.L_CORE X_NUC_109.L_CORE 0.002050
K_384 X_NUC_3.L_CORE X_NUC_110.L_CORE 0.002044
K_385 X_NUC_3.L_CORE X_NUC_111.L_CORE 0.002033
K_386 X_NUC_3.L_CORE X_NUC_112.L_CORE 0.002034
K_387 X_NUC_3.L_CORE X_NUC_113.L_CORE 0.002026
K_388 X_NUC_3.L_CORE X_NUC_114.L_CORE 0.002025
K_389 X_NUC_3.L_CORE X_NUC_115.L_CORE 0.002010
K_390 X_NUC_3.L_CORE X_NUC_116.L_CORE 0.002014
K_391 X_NUC_3.L_CORE X_NUC_117.L_CORE 0.029629
K_392 X_NUC_3.L_CORE X_NUC_118.L_CORE 0.005275
K_393 X_NUC_3.L_CORE X_NUC_119.L_CORE 0.005625
K_394 X_NUC_3.L_CORE X_NUC_120.L_CORE 0.005723
K_395 X_NUC_3.L_CORE X_NUC_121.L_CORE 0.003443
K_396 X_NUC_3.L_CORE X_NUC_122.L_CORE 0.004869
K_397 X_NUC_3.L_CORE X_NUC_123.L_CORE 0.003359
K_398 X_NUC_3.L_CORE X_NUC_124.L_CORE 0.003080
K_399 X_NUC_3.L_CORE X_NUC_125.L_CORE 0.003776
K_400 X_NUC_3.L_CORE X_NUC_126.L_CORE 0.002613
K_401 X_NUC_3.L_CORE X_NUC_127.L_CORE 0.003031
K_402 X_NUC_3.L_CORE X_NUC_128.L_CORE 0.002813
K_403 X_NUC_3.L_CORE X_NUC_129.L_CORE 0.002369
K_404 X_NUC_3.L_CORE X_NUC_130.L_CORE 0.002842
K_405 X_NUC_3.L_CORE X_NUC_131.L_CORE 0.002286
K_406 X_NUC_3.L_CORE X_NUC_132.L_CORE 0.002324
K_407 X_NUC_3.L_CORE X_NUC_133.L_CORE 0.002440
K_408 X_NUC_3.L_CORE X_NUC_134.L_CORE 0.002057
K_409 X_NUC_3.L_CORE X_NUC_135.L_CORE 0.002273
K_410 X_NUC_3.L_CORE X_NUC_136.L_CORE 0.002090
K_411 X_NUC_3.L_CORE X_NUC_137.L_CORE 0.001984
K_412 X_NUC_3.L_CORE X_NUC_138.L_CORE 0.002094
K_413 X_NUC_3.L_CORE X_NUC_139.L_CORE 0.001905
K_414 X_NUC_3.L_CORE X_NUC_140.L_CORE 0.001925
K_415 X_NUC_4.L_CORE X_NUC_5.L_CORE 0.006067
K_416 X_NUC_4.L_CORE X_NUC_6.L_CORE 0.005904
K_417 X_NUC_4.L_CORE X_NUC_7.L_CORE 0.005945
K_418 X_NUC_4.L_CORE X_NUC_8.L_CORE 0.006000
K_419 X_NUC_4.L_CORE X_NUC_9.L_CORE 0.006380
K_420 X_NUC_4.L_CORE X_NUC_10.L_CORE 0.006459
K_421 X_NUC_4.L_CORE X_NUC_11.L_CORE 0.006304
K_422 X_NUC_4.L_CORE X_NUC_12.L_CORE 0.006479
K_423 X_NUC_4.L_CORE X_NUC_13.L_CORE 0.007145
K_424 X_NUC_4.L_CORE X_NUC_14.L_CORE 0.007029
K_425 X_NUC_4.L_CORE X_NUC_15.L_CORE 0.007123
K_426 X_NUC_4.L_CORE X_NUC_16.L_CORE 0.006933
K_427 X_NUC_4.L_CORE X_NUC_17.L_CORE 0.003905
K_428 X_NUC_4.L_CORE X_NUC_18.L_CORE 0.003863
K_429 X_NUC_4.L_CORE X_NUC_19.L_CORE 0.003843
K_430 X_NUC_4.L_CORE X_NUC_20.L_CORE 0.003898
K_431 X_NUC_4.L_CORE X_NUC_21.L_CORE 0.005864
K_432 X_NUC_4.L_CORE X_NUC_22.L_CORE 0.006011
K_433 X_NUC_4.L_CORE X_NUC_23.L_CORE 0.005874
K_434 X_NUC_4.L_CORE X_NUC_24.L_CORE 0.005880
K_435 X_NUC_4.L_CORE X_NUC_25.L_CORE 0.003946
K_436 X_NUC_4.L_CORE X_NUC_26.L_CORE 0.003880
K_437 X_NUC_4.L_CORE X_NUC_27.L_CORE 0.003900
K_438 X_NUC_4.L_CORE X_NUC_28.L_CORE 0.003884
K_439 X_NUC_4.L_CORE X_NUC_29.L_CORE 0.003504
K_440 X_NUC_4.L_CORE X_NUC_30.L_CORE 0.003509
K_441 X_NUC_4.L_CORE X_NUC_31.L_CORE 0.003463
K_442 X_NUC_4.L_CORE X_NUC_32.L_CORE 0.003516
K_443 X_NUC_4.L_CORE X_NUC_33.L_CORE 0.004643
K_444 X_NUC_4.L_CORE X_NUC_34.L_CORE 0.004668
K_445 X_NUC_4.L_CORE X_NUC_35.L_CORE 0.004647
K_446 X_NUC_4.L_CORE X_NUC_36.L_CORE 0.004572
K_447 X_NUC_4.L_CORE X_NUC_37.L_CORE 0.002996
K_448 X_NUC_4.L_CORE X_NUC_38.L_CORE 0.002962
K_449 X_NUC_4.L_CORE X_NUC_39.L_CORE 0.002957
K_450 X_NUC_4.L_CORE X_NUC_40.L_CORE 0.002974
K_451 X_NUC_4.L_CORE X_NUC_41.L_CORE 0.003540
K_452 X_NUC_4.L_CORE X_NUC_42.L_CORE 0.003579
K_453 X_NUC_4.L_CORE X_NUC_43.L_CORE 0.003520
K_454 X_NUC_4.L_CORE X_NUC_44.L_CORE 0.003548
K_455 X_NUC_4.L_CORE X_NUC_45.L_CORE 0.003356
K_456 X_NUC_4.L_CORE X_NUC_46.L_CORE 0.003327
K_457 X_NUC_4.L_CORE X_NUC_47.L_CORE 0.003333
K_458 X_NUC_4.L_CORE X_NUC_48.L_CORE 0.003303
K_459 X_NUC_4.L_CORE X_NUC_49.L_CORE 0.002697
K_460 X_NUC_4.L_CORE X_NUC_50.L_CORE 0.002687
K_461 X_NUC_4.L_CORE X_NUC_51.L_CORE 0.002665
K_462 X_NUC_4.L_CORE X_NUC_52.L_CORE 0.002692
K_463 X_NUC_4.L_CORE X_NUC_53.L_CORE 0.003432
K_464 X_NUC_4.L_CORE X_NUC_54.L_CORE 0.003464
K_465 X_NUC_4.L_CORE X_NUC_55.L_CORE 0.003425
K_466 X_NUC_4.L_CORE X_NUC_56.L_CORE 0.003409
K_467 X_NUC_4.L_CORE X_NUC_57.L_CORE 0.002649
K_468 X_NUC_4.L_CORE X_NUC_58.L_CORE 0.002623
K_469 X_NUC_4.L_CORE X_NUC_59.L_CORE 0.002621
K_470 X_NUC_4.L_CORE X_NUC_60.L_CORE 0.002621
K_471 X_NUC_4.L_CORE X_NUC_61.L_CORE 0.002680
K_472 X_NUC_4.L_CORE X_NUC_62.L_CORE 0.002690
K_473 X_NUC_4.L_CORE X_NUC_63.L_CORE 0.002657
K_474 X_NUC_4.L_CORE X_NUC_64.L_CORE 0.002680
K_475 X_NUC_4.L_CORE X_NUC_65.L_CORE 0.002942
K_476 X_NUC_4.L_CORE X_NUC_66.L_CORE 0.002939
K_477 X_NUC_4.L_CORE X_NUC_67.L_CORE 0.002929
K_478 X_NUC_4.L_CORE X_NUC_68.L_CORE 0.002905
K_479 X_NUC_4.L_CORE X_NUC_69.L_CORE 0.002344
K_480 X_NUC_4.L_CORE X_NUC_70.L_CORE 0.002330
K_481 X_NUC_4.L_CORE X_NUC_71.L_CORE 0.002318
K_482 X_NUC_4.L_CORE X_NUC_72.L_CORE 0.002331
K_483 X_NUC_4.L_CORE X_NUC_73.L_CORE 0.002702
K_484 X_NUC_4.L_CORE X_NUC_74.L_CORE 0.002721
K_485 X_NUC_4.L_CORE X_NUC_75.L_CORE 0.002689
K_486 X_NUC_4.L_CORE X_NUC_76.L_CORE 0.002693
K_487 X_NUC_4.L_CORE X_NUC_77.L_CORE 0.002452
K_488 X_NUC_4.L_CORE X_NUC_78.L_CORE 0.002436
K_489 X_NUC_4.L_CORE X_NUC_79.L_CORE 0.002432
K_490 X_NUC_4.L_CORE X_NUC_80.L_CORE 0.002424
K_491 X_NUC_4.L_CORE X_NUC_81.L_CORE 0.002263
K_492 X_NUC_4.L_CORE X_NUC_82.L_CORE 0.002262
K_493 X_NUC_4.L_CORE X_NUC_83.L_CORE 0.002241
K_494 X_NUC_4.L_CORE X_NUC_84.L_CORE 0.002256
K_495 X_NUC_4.L_CORE X_NUC_85.L_CORE 0.002545
K_496 X_NUC_4.L_CORE X_NUC_86.L_CORE 0.002552
K_497 X_NUC_4.L_CORE X_NUC_87.L_CORE 0.002534
K_498 X_NUC_4.L_CORE X_NUC_88.L_CORE 0.002524
K_499 X_NUC_4.L_CORE X_NUC_89.L_CORE 0.002166
K_500 X_NUC_4.L_CORE X_NUC_90.L_CORE 0.002153
K_501 X_NUC_4.L_CORE X_NUC_91.L_CORE 0.002145
K_502 X_NUC_4.L_CORE X_NUC_92.L_CORE 0.002149
K_503 X_NUC_4.L_CORE X_NUC_93.L_CORE 0.002262
K_504 X_NUC_4.L_CORE X_NUC_94.L_CORE 0.002269
K_505 X_NUC_4.L_CORE X_NUC_95.L_CORE 0.002246
K_506 X_NUC_4.L_CORE X_NUC_96.L_CORE 0.002254
K_507 X_NUC_4.L_CORE X_NUC_97.L_CORE 0.002264
K_508 X_NUC_4.L_CORE X_NUC_98.L_CORE 0.002258
K_509 X_NUC_4.L_CORE X_NUC_99.L_CORE 0.002248
K_510 X_NUC_4.L_CORE X_NUC_100.L_CORE 0.002241
K_511 X_NUC_4.L_CORE X_NUC_101.L_CORE 0.002053
K_512 X_NUC_4.L_CORE X_NUC_102.L_CORE 0.002048
K_513 X_NUC_4.L_CORE X_NUC_103.L_CORE 0.002034
K_514 X_NUC_4.L_CORE X_NUC_104.L_CORE 0.002042
K_515 X_NUC_4.L_CORE X_NUC_105.L_CORE 0.002191
K_516 X_NUC_4.L_CORE X_NUC_106.L_CORE 0.002195
K_517 X_NUC_4.L_CORE X_NUC_107.L_CORE 0.002177
K_518 X_NUC_4.L_CORE X_NUC_108.L_CORE 0.002177
K_519 X_NUC_4.L_CORE X_NUC_109.L_CORE 0.002050
K_520 X_NUC_4.L_CORE X_NUC_110.L_CORE 0.002044
K_521 X_NUC_4.L_CORE X_NUC_111.L_CORE 0.002033
K_522 X_NUC_4.L_CORE X_NUC_112.L_CORE 0.002033
K_523 X_NUC_4.L_CORE X_NUC_113.L_CORE 0.002022
K_524 X_NUC_4.L_CORE X_NUC_114.L_CORE 0.002021
K_525 X_NUC_4.L_CORE X_NUC_115.L_CORE 0.002006
K_526 X_NUC_4.L_CORE X_NUC_116.L_CORE 0.002010
K_527 X_NUC_4.L_CORE X_NUC_117.L_CORE 0.031063
K_528 X_NUC_4.L_CORE X_NUC_118.L_CORE 0.005238
K_529 X_NUC_4.L_CORE X_NUC_119.L_CORE 0.005495
K_530 X_NUC_4.L_CORE X_NUC_120.L_CORE 0.005864
K_531 X_NUC_4.L_CORE X_NUC_121.L_CORE 0.003399
K_532 X_NUC_4.L_CORE X_NUC_122.L_CORE 0.004872
K_533 X_NUC_4.L_CORE X_NUC_123.L_CORE 0.003373
K_534 X_NUC_4.L_CORE X_NUC_124.L_CORE 0.003039
K_535 X_NUC_4.L_CORE X_NUC_125.L_CORE 0.003828
K_536 X_NUC_4.L_CORE X_NUC_126.L_CORE 0.002600
K_537 X_NUC_4.L_CORE X_NUC_127.L_CORE 0.003012
K_538 X_NUC_4.L_CORE X_NUC_128.L_CORE 0.002835
K_539 X_NUC_4.L_CORE X_NUC_129.L_CORE 0.002349
K_540 X_NUC_4.L_CORE X_NUC_130.L_CORE 0.002853
K_541 X_NUC_4.L_CORE X_NUC_131.L_CORE 0.002286
K_542 X_NUC_4.L_CORE X_NUC_132.L_CORE 0.002309
K_543 X_NUC_4.L_CORE X_NUC_133.L_CORE 0.002455
K_544 X_NUC_4.L_CORE X_NUC_134.L_CORE 0.002048
K_545 X_NUC_4.L_CORE X_NUC_135.L_CORE 0.002270
K_546 X_NUC_4.L_CORE X_NUC_136.L_CORE 0.002094
K_547 X_NUC_4.L_CORE X_NUC_137.L_CORE 0.001975
K_548 X_NUC_4.L_CORE X_NUC_138.L_CORE 0.002098
K_549 X_NUC_4.L_CORE X_NUC_139.L_CORE 0.001903
K_550 X_NUC_4.L_CORE X_NUC_140.L_CORE 0.001922