* Applied Vacuum Engineering (AVE) - SPICE Netlist
* Element: Gallium-70 (Z=31, A=70)
* Auto-generated topological mutual impedance array
* Nodes: 70



* -----------------------------------------------------------------
* NUCLEON (Baseline 6^3_2 Topological Defect)
* -----------------------------------------------------------------
.SUBCKT NUCLEON IN OUT
L_CORE IN OUT 1uH
C_CORE IN OUT 1pF
.ENDS NUCLEON



* -----------------------------------------------------------------
* MACROSCOPIC TOPOLOGY (Nucleon Array)
* -----------------------------------------------------------------
V_STIM NODE_1 0 AC 1 PULSE(0 100k 10n 1n 1n 50n 100n)

X_NUC_1 NODE_1 0 NUCLEON
X_NUC_2 NODE_2 0 NUCLEON
X_NUC_3 NODE_3 0 NUCLEON
X_NUC_4 NODE_4 0 NUCLEON
X_NUC_5 NODE_5 0 NUCLEON
X_NUC_6 NODE_6 0 NUCLEON
X_NUC_7 NODE_7 0 NUCLEON
X_NUC_8 NODE_8 0 NUCLEON
X_NUC_9 NODE_9 0 NUCLEON
X_NUC_10 NODE_10 0 NUCLEON
X_NUC_11 NODE_11 0 NUCLEON
X_NUC_12 NODE_12 0 NUCLEON
X_NUC_13 NODE_13 0 NUCLEON
X_NUC_14 NODE_14 0 NUCLEON
X_NUC_15 NODE_15 0 NUCLEON
X_NUC_16 NODE_16 0 NUCLEON
X_NUC_17 NODE_17 0 NUCLEON
X_NUC_18 NODE_18 0 NUCLEON
X_NUC_19 NODE_19 0 NUCLEON
X_NUC_20 NODE_20 0 NUCLEON
X_NUC_21 NODE_21 0 NUCLEON
X_NUC_22 NODE_22 0 NUCLEON
X_NUC_23 NODE_23 0 NUCLEON
X_NUC_24 NODE_24 0 NUCLEON
X_NUC_25 NODE_25 0 NUCLEON
X_NUC_26 NODE_26 0 NUCLEON
X_NUC_27 NODE_27 0 NUCLEON
X_NUC_28 NODE_28 0 NUCLEON
X_NUC_29 NODE_29 0 NUCLEON
X_NUC_30 NODE_30 0 NUCLEON
X_NUC_31 NODE_31 0 NUCLEON
X_NUC_32 NODE_32 0 NUCLEON
X_NUC_33 NODE_33 0 NUCLEON
X_NUC_34 NODE_34 0 NUCLEON
X_NUC_35 NODE_35 0 NUCLEON
X_NUC_36 NODE_36 0 NUCLEON
X_NUC_37 NODE_37 0 NUCLEON
X_NUC_38 NODE_38 0 NUCLEON
X_NUC_39 NODE_39 0 NUCLEON
X_NUC_40 NODE_40 0 NUCLEON
X_NUC_41 NODE_41 0 NUCLEON
X_NUC_42 NODE_42 0 NUCLEON
X_NUC_43 NODE_43 0 NUCLEON
X_NUC_44 NODE_44 0 NUCLEON
X_NUC_45 NODE_45 0 NUCLEON
X_NUC_46 NODE_46 0 NUCLEON
X_NUC_47 NODE_47 0 NUCLEON
X_NUC_48 NODE_48 0 NUCLEON
X_NUC_49 NODE_49 0 NUCLEON
X_NUC_50 NODE_50 0 NUCLEON
X_NUC_51 NODE_51 0 NUCLEON
X_NUC_52 NODE_52 0 NUCLEON
X_NUC_53 NODE_53 0 NUCLEON
X_NUC_54 NODE_54 0 NUCLEON
X_NUC_55 NODE_55 0 NUCLEON
X_NUC_56 NODE_56 0 NUCLEON
X_NUC_57 NODE_57 0 NUCLEON
X_NUC_58 NODE_58 0 NUCLEON
X_NUC_59 NODE_59 0 NUCLEON
X_NUC_60 NODE_60 0 NUCLEON
X_NUC_61 NODE_61 0 NUCLEON
X_NUC_62 NODE_62 0 NUCLEON
X_NUC_63 NODE_63 0 NUCLEON
X_NUC_64 NODE_64 0 NUCLEON
X_NUC_65 NODE_65 0 NUCLEON
X_NUC_66 NODE_66 0 NUCLEON
X_NUC_67 NODE_67 0 NUCLEON
X_NUC_68 NODE_68 0 NUCLEON
X_NUC_69 NODE_69 0 NUCLEON
X_NUC_70 NODE_70 0 NUCLEON


* -----------------------------------------------------------------
* SPATIAL MUTUAL INDUCTANCE (K-FACTORS)
* -----------------------------------------------------------------
K_1 X_NUC_1.L_CORE X_NUC_2.L_CORE 0.207973
K_2 X_NUC_1.L_CORE X_NUC_3.L_CORE 0.207973
K_3 X_NUC_1.L_CORE X_NUC_4.L_CORE 0.207973
K_4 X_NUC_1.L_CORE X_NUC_5.L_CORE 0.007950
K_5 X_NUC_1.L_CORE X_NUC_6.L_CORE 0.007673
K_6 X_NUC_1.L_CORE X_NUC_7.L_CORE 0.007732
K_7 X_NUC_1.L_CORE X_NUC_8.L_CORE 0.007820
K_8 X_NUC_1.L_CORE X_NUC_9.L_CORE 0.008573
K_9 X_NUC_1.L_CORE X_NUC_10.L_CORE 0.008702
K_10 X_NUC_1.L_CORE X_NUC_11.L_CORE 0.008405
K_11 X_NUC_1.L_CORE X_NUC_12.L_CORE 0.008710
K_12 X_NUC_1.L_CORE X_NUC_13.L_CORE 0.009058
K_13 X_NUC_1.L_CORE X_NUC_14.L_CORE 0.008875
K_14 X_NUC_1.L_CORE X_NUC_15.L_CORE 0.008966
K_15 X_NUC_1.L_CORE X_NUC_16.L_CORE 0.008697
K_16 X_NUC_1.L_CORE X_NUC_17.L_CORE 0.005234
K_17 X_NUC_1.L_CORE X_NUC_18.L_CORE 0.005160
K_18 X_NUC_1.L_CORE X_NUC_19.L_CORE 0.005116
K_19 X_NUC_1.L_CORE X_NUC_20.L_CORE 0.005208
K_20 X_NUC_1.L_CORE X_NUC_21.L_CORE 0.007532
K_21 X_NUC_1.L_CORE X_NUC_22.L_CORE 0.007730
K_22 X_NUC_1.L_CORE X_NUC_23.L_CORE 0.007484
K_23 X_NUC_1.L_CORE X_NUC_24.L_CORE 0.007497
K_24 X_NUC_1.L_CORE X_NUC_25.L_CORE 0.005187
K_25 X_NUC_1.L_CORE X_NUC_26.L_CORE 0.005086
K_26 X_NUC_1.L_CORE X_NUC_27.L_CORE 0.005095
K_27 X_NUC_1.L_CORE X_NUC_28.L_CORE 0.005074
K_28 X_NUC_1.L_CORE X_NUC_29.L_CORE 0.004727
K_29 X_NUC_1.L_CORE X_NUC_30.L_CORE 0.004730
K_30 X_NUC_1.L_CORE X_NUC_31.L_CORE 0.004641
K_31 X_NUC_1.L_CORE X_NUC_32.L_CORE 0.004724
K_32 X_NUC_1.L_CORE X_NUC_33.L_CORE 0.005741
K_33 X_NUC_1.L_CORE X_NUC_34.L_CORE 0.005760
K_34 X_NUC_1.L_CORE X_NUC_35.L_CORE 0.005695
K_35 X_NUC_1.L_CORE X_NUC_36.L_CORE 0.005618
K_36 X_NUC_1.L_CORE X_NUC_37.L_CORE 0.004075
K_37 X_NUC_1.L_CORE X_NUC_38.L_CORE 0.004023
K_38 X_NUC_1.L_CORE X_NUC_39.L_CORE 0.003998
K_39 X_NUC_1.L_CORE X_NUC_40.L_CORE 0.004025
K_40 X_NUC_1.L_CORE X_NUC_41.L_CORE 0.004595
K_41 X_NUC_1.L_CORE X_NUC_42.L_CORE 0.004633
K_42 X_NUC_1.L_CORE X_NUC_43.L_CORE 0.004535
K_43 X_NUC_1.L_CORE X_NUC_44.L_CORE 0.004571
K_44 X_NUC_1.L_CORE X_NUC_45.L_CORE 0.004303
K_45 X_NUC_1.L_CORE X_NUC_46.L_CORE 0.004268
K_46 X_NUC_1.L_CORE X_NUC_47.L_CORE 0.004244
K_47 X_NUC_1.L_CORE X_NUC_48.L_CORE 0.004219
K_48 X_NUC_1.L_CORE X_NUC_49.L_CORE 0.003748
K_49 X_NUC_1.L_CORE X_NUC_50.L_CORE 0.003732
K_50 X_NUC_1.L_CORE X_NUC_51.L_CORE 0.003685
K_51 X_NUC_1.L_CORE X_NUC_52.L_CORE 0.003718
K_52 X_NUC_1.L_CORE X_NUC_53.L_CORE 0.004118
K_53 X_NUC_1.L_CORE X_NUC_54.L_CORE 0.004129
K_54 X_NUC_1.L_CORE X_NUC_55.L_CORE 0.004068
K_55 X_NUC_1.L_CORE X_NUC_56.L_CORE 0.004065
K_56 X_NUC_1.L_CORE X_NUC_57.L_CORE 0.003659
K_57 X_NUC_1.L_CORE X_NUC_58.L_CORE 0.003639
K_58 X_NUC_1.L_CORE X_NUC_59.L_CORE 0.003604
K_59 X_NUC_1.L_CORE X_NUC_60.L_CORE 0.003610
K_60 X_NUC_1.L_CORE X_NUC_61.L_CORE 0.032443
K_61 X_NUC_1.L_CORE X_NUC_62.L_CORE 0.006104
K_62 X_NUC_1.L_CORE X_NUC_63.L_CORE 0.006395
K_63 X_NUC_1.L_CORE X_NUC_64.L_CORE 0.006267
K_64 X_NUC_1.L_CORE X_NUC_65.L_CORE 0.004051
K_65 X_NUC_1.L_CORE X_NUC_66.L_CORE 0.005134
K_66 X_NUC_1.L_CORE X_NUC_67.L_CORE 0.003876
K_67 X_NUC_1.L_CORE X_NUC_68.L_CORE 0.003602
K_68 X_NUC_1.L_CORE X_NUC_69.L_CORE 0.003837
K_69 X_NUC_1.L_CORE X_NUC_70.L_CORE 0.003237
K_70 X_NUC_2.L_CORE X_NUC_3.L_CORE 0.207973
K_71 X_NUC_2.L_CORE X_NUC_4.L_CORE 0.207973
K_72 X_NUC_2.L_CORE X_NUC_5.L_CORE 0.008245
K_73 X_NUC_2.L_CORE X_NUC_6.L_CORE 0.007950
K_74 X_NUC_2.L_CORE X_NUC_7.L_CORE 0.008009
K_75 X_NUC_2.L_CORE X_NUC_8.L_CORE 0.008106
K_76 X_NUC_2.L_CORE X_NUC_9.L_CORE 0.008436
K_77 X_NUC_2.L_CORE X_NUC_10.L_CORE 0.008573
K_78 X_NUC_2.L_CORE X_NUC_11.L_CORE 0.008282
K_79 X_NUC_2.L_CORE X_NUC_12.L_CORE 0.008574
K_80 X_NUC_2.L_CORE X_NUC_13.L_CORE 0.009235
K_81 X_NUC_2.L_CORE X_NUC_14.L_CORE 0.009058
K_82 X_NUC_2.L_CORE X_NUC_15.L_CORE 0.009146
K_83 X_NUC_2.L_CORE X_NUC_16.L_CORE 0.008862
K_84 X_NUC_2.L_CORE X_NUC_17.L_CORE 0.005309
K_85 X_NUC_2.L_CORE X_NUC_18.L_CORE 0.005234
K_86 X_NUC_2.L_CORE X_NUC_19.L_CORE 0.005187
K_87 X_NUC_2.L_CORE X_NUC_20.L_CORE 0.005283
K_88 X_NUC_2.L_CORE X_NUC_21.L_CORE 0.007339
K_89 X_NUC_2.L_CORE X_NUC_22.L_CORE 0.007532
K_90 X_NUC_2.L_CORE X_NUC_23.L_CORE 0.007300
K_91 X_NUC_2.L_CORE X_NUC_24.L_CORE 0.007311
K_92 X_NUC_2.L_CORE X_NUC_25.L_CORE 0.005292
K_93 X_NUC_2.L_CORE X_NUC_26.L_CORE 0.005187
K_94 X_NUC_2.L_CORE X_NUC_27.L_CORE 0.005196
K_95 X_NUC_2.L_CORE X_NUC_28.L_CORE 0.005174
K_96 X_NUC_2.L_CORE X_NUC_29.L_CORE 0.004723
K_97 X_NUC_2.L_CORE X_NUC_30.L_CORE 0.004727
K_98 X_NUC_2.L_CORE X_NUC_31.L_CORE 0.004638
K_99 X_NUC_2.L_CORE X_NUC_32.L_CORE 0.004721
K_100 X_NUC_2.L_CORE X_NUC_33.L_CORE 0.005718
K_101 X_NUC_2.L_CORE X_NUC_34.L_CORE 0.005741
K_102 X_NUC_2.L_CORE X_NUC_35.L_CORE 0.005675
K_103 X_NUC_2.L_CORE X_NUC_36.L_CORE 0.005598
K_104 X_NUC_2.L_CORE X_NUC_37.L_CORE 0.004127
K_105 X_NUC_2.L_CORE X_NUC_38.L_CORE 0.004075
K_106 X_NUC_2.L_CORE X_NUC_39.L_CORE 0.004048
K_107 X_NUC_2.L_CORE X_NUC_40.L_CORE 0.004076
K_108 X_NUC_2.L_CORE X_NUC_41.L_CORE 0.004555
K_109 X_NUC_2.L_CORE X_NUC_42.L_CORE 0.004595
K_110 X_NUC_2.L_CORE X_NUC_43.L_CORE 0.004498
K_111 X_NUC_2.L_CORE X_NUC_44.L_CORE 0.004532
K_112 X_NUC_2.L_CORE X_NUC_45.L_CORE 0.004337
K_113 X_NUC_2.L_CORE X_NUC_46.L_CORE 0.004303
K_114 X_NUC_2.L_CORE X_NUC_47.L_CORE 0.004277
K_115 X_NUC_2.L_CORE X_NUC_48.L_CORE 0.004252
K_116 X_NUC_2.L_CORE X_NUC_49.L_CORE 0.003764
K_117 X_NUC_2.L_CORE X_NUC_50.L_CORE 0.003748
K_118 X_NUC_2.L_CORE X_NUC_51.L_CORE 0.003700
K_119 X_NUC_2.L_CORE X_NUC_52.L_CORE 0.003733
K_120 X_NUC_2.L_CORE X_NUC_53.L_CORE 0.004105
K_121 X_NUC_2.L_CORE X_NUC_54.L_CORE 0.004118
K_122 X_NUC_2.L_CORE X_NUC_55.L_CORE 0.004057
K_123 X_NUC_2.L_CORE X_NUC_56.L_CORE 0.004054
K_124 X_NUC_2.L_CORE X_NUC_57.L_CORE 0.003679
K_125 X_NUC_2.L_CORE X_NUC_58.L_CORE 0.003659
K_126 X_NUC_2.L_CORE X_NUC_59.L_CORE 0.003623
K_127 X_NUC_2.L_CORE X_NUC_60.L_CORE 0.003629
K_128 X_NUC_2.L_CORE X_NUC_61.L_CORE 0.029972
K_129 X_NUC_2.L_CORE X_NUC_62.L_CORE 0.006282
K_130 X_NUC_2.L_CORE X_NUC_63.L_CORE 0.006300
K_131 X_NUC_2.L_CORE X_NUC_64.L_CORE 0.006334
K_132 X_NUC_2.L_CORE X_NUC_65.L_CORE 0.004093
K_133 X_NUC_2.L_CORE X_NUC_66.L_CORE 0.005052
K_134 X_NUC_2.L_CORE X_NUC_67.L_CORE 0.003926
K_135 X_NUC_2.L_CORE X_NUC_68.L_CORE 0.003600
K_136 X_NUC_2.L_CORE X_NUC_69.L_CORE 0.003833
K_137 X_NUC_2.L_CORE X_NUC_70.L_CORE 0.003254
K_138 X_NUC_3.L_CORE X_NUC_4.L_CORE 0.207973
K_139 X_NUC_3.L_CORE X_NUC_5.L_CORE 0.008174
K_140 X_NUC_3.L_CORE X_NUC_6.L_CORE 0.007880
K_141 X_NUC_3.L_CORE X_NUC_7.L_CORE 0.007950
K_142 X_NUC_3.L_CORE X_NUC_8.L_CORE 0.008039
K_143 X_NUC_3.L_CORE X_NUC_9.L_CORE 0.008737
K_144 X_NUC_3.L_CORE X_NUC_10.L_CORE 0.008881
K_145 X_NUC_3.L_CORE X_NUC_11.L_CORE 0.008573
K_146 X_NUC_3.L_CORE X_NUC_12.L_CORE 0.008890
K_147 X_NUC_3.L_CORE X_NUC_13.L_CORE 0.009136
K_148 X_NUC_3.L_CORE X_NUC_14.L_CORE 0.008956
K_149 X_NUC_3.L_CORE X_NUC_15.L_CORE 0.009058
K_150 X_NUC_3.L_CORE X_NUC_16.L_CORE 0.008774
K_151 X_NUC_3.L_CORE X_NUC_17.L_CORE 0.005358
K_152 X_NUC_3.L_CORE X_NUC_18.L_CORE 0.005280
K_153 X_NUC_3.L_CORE X_NUC_19.L_CORE 0.005234
K_154 X_NUC_3.L_CORE X_NUC_20.L_CORE 0.005331
K_155 X_NUC_3.L_CORE X_NUC_21.L_CORE 0.007570
K_156 X_NUC_3.L_CORE X_NUC_22.L_CORE 0.007777
K_157 X_NUC_3.L_CORE X_NUC_23.L_CORE 0.007532
K_158 X_NUC_3.L_CORE X_NUC_24.L_CORE 0.007540
K_159 X_NUC_3.L_CORE X_NUC_25.L_CORE 0.005282
K_160 X_NUC_3.L_CORE X_NUC_26.L_CORE 0.005176
K_161 X_NUC_3.L_CORE X_NUC_27.L_CORE 0.005187
K_162 X_NUC_3.L_CORE X_NUC_28.L_CORE 0.005164
K_163 X_NUC_3.L_CORE X_NUC_29.L_CORE 0.004816
K_164 X_NUC_3.L_CORE X_NUC_30.L_CORE 0.004819
K_165 X_NUC_3.L_CORE X_NUC_31.L_CORE 0.004727
K_166 X_NUC_3.L_CORE X_NUC_32.L_CORE 0.004814
K_167 X_NUC_3.L_CORE X_NUC_33.L_CORE 0.005784
K_168 X_NUC_3.L_CORE X_NUC_34.L_CORE 0.005805
K_169 X_NUC_3.L_CORE X_NUC_35.L_CORE 0.005741
K_170 X_NUC_3.L_CORE X_NUC_36.L_CORE 0.005659
K_171 X_NUC_3.L_CORE X_NUC_37.L_CORE 0.004154
K_172 X_NUC_3.L_CORE X_NUC_38.L_CORE 0.004101
K_173 X_NUC_3.L_CORE X_NUC_39.L_CORE 0.004075
K_174 X_NUC_3.L_CORE X_NUC_40.L_CORE 0.004102
K_175 X_NUC_3.L_CORE X_NUC_41.L_CORE 0.004654
K_176 X_NUC_3.L_CORE X_NUC_42.L_CORE 0.004696
K_177 X_NUC_3.L_CORE X_NUC_43.L_CORE 0.004595
K_178 X_NUC_3.L_CORE X_NUC_44.L_CORE 0.004630
K_179 X_NUC_3.L_CORE X_NUC_45.L_CORE 0.004362
K_180 X_NUC_3.L_CORE X_NUC_46.L_CORE 0.004327
K_181 X_NUC_3.L_CORE X_NUC_47.L_CORE 0.004303
K_182 X_NUC_3.L_CORE X_NUC_48.L_CORE 0.004276
K_183 X_NUC_3.L_CORE X_NUC_49.L_CORE 0.003814
K_184 X_NUC_3.L_CORE X_NUC_50.L_CORE 0.003798
K_185 X_NUC_3.L_CORE X_NUC_51.L_CORE 0.003748
K_186 X_NUC_3.L_CORE X_NUC_52.L_CORE 0.003782
K_187 X_NUC_3.L_CORE X_NUC_53.L_CORE 0.004167
K_188 X_NUC_3.L_CORE X_NUC_54.L_CORE 0.004179
K_189 X_NUC_3.L_CORE X_NUC_55.L_CORE 0.004118
K_190 X_NUC_3.L_CORE X_NUC_56.L_CORE 0.004114
K_191 X_NUC_3.L_CORE X_NUC_57.L_CORE 0.003716
K_192 X_NUC_3.L_CORE X_NUC_58.L_CORE 0.003696
K_193 X_NUC_3.L_CORE X_NUC_59.L_CORE 0.003659
K_194 X_NUC_3.L_CORE X_NUC_60.L_CORE 0.003665
K_195 X_NUC_3.L_CORE X_NUC_61.L_CORE 0.028071
K_196 X_NUC_3.L_CORE X_NUC_62.L_CORE 0.006223
K_197 X_NUC_3.L_CORE X_NUC_63.L_CORE 0.006469
K_198 X_NUC_3.L_CORE X_NUC_64.L_CORE 0.006292
K_199 X_NUC_3.L_CORE X_NUC_65.L_CORE 0.004127
K_200 X_NUC_3.L_CORE X_NUC_66.L_CORE 0.005159
K_201 X_NUC_3.L_CORE X_NUC_67.L_CORE 0.003931
K_202 X_NUC_3.L_CORE X_NUC_68.L_CORE 0.003655
K_203 X_NUC_3.L_CORE X_NUC_69.L_CORE 0.003873
K_204 X_NUC_3.L_CORE X_NUC_70.L_CORE 0.003284
K_205 X_NUC_4.L_CORE X_NUC_5.L_CORE 0.008074
K_206 X_NUC_4.L_CORE X_NUC_6.L_CORE 0.007791
K_207 X_NUC_4.L_CORE X_NUC_7.L_CORE 0.007852
K_208 X_NUC_4.L_CORE X_NUC_8.L_CORE 0.007950
K_209 X_NUC_4.L_CORE X_NUC_9.L_CORE 0.008428
K_210 X_NUC_4.L_CORE X_NUC_10.L_CORE 0.008558
K_211 X_NUC_4.L_CORE X_NUC_11.L_CORE 0.008275
K_212 X_NUC_4.L_CORE X_NUC_12.L_CORE 0.008573
K_213 X_NUC_4.L_CORE X_NUC_13.L_CORE 0.009449
K_214 X_NUC_4.L_CORE X_NUC_14.L_CORE 0.009250
K_215 X_NUC_4.L_CORE X_NUC_15.L_CORE 0.009353
K_216 X_NUC_4.L_CORE X_NUC_16.L_CORE 0.009058
K_217 X_NUC_4.L_CORE X_NUC_17.L_CORE 0.005258
K_218 X_NUC_4.L_CORE X_NUC_18.L_CORE 0.005184
K_219 X_NUC_4.L_CORE X_NUC_19.L_CORE 0.005139
K_220 X_NUC_4.L_CORE X_NUC_20.L_CORE 0.005234
K_221 X_NUC_4.L_CORE X_NUC_21.L_CORE 0.007557
K_222 X_NUC_4.L_CORE X_NUC_22.L_CORE 0.007763
K_223 X_NUC_4.L_CORE X_NUC_23.L_CORE 0.007514
K_224 X_NUC_4.L_CORE X_NUC_24.L_CORE 0.007532
K_225 X_NUC_4.L_CORE X_NUC_25.L_CORE 0.005305
K_226 X_NUC_4.L_CORE X_NUC_26.L_CORE 0.005198
K_227 X_NUC_4.L_CORE X_NUC_27.L_CORE 0.005208
K_228 X_NUC_4.L_CORE X_NUC_28.L_CORE 0.005187
K_229 X_NUC_4.L_CORE X_NUC_29.L_CORE 0.004729
K_230 X_NUC_4.L_CORE X_NUC_30.L_CORE 0.004732
K_231 X_NUC_4.L_CORE X_NUC_31.L_CORE 0.004644
K_232 X_NUC_4.L_CORE X_NUC_32.L_CORE 0.004727
K_233 X_NUC_4.L_CORE X_NUC_33.L_CORE 0.005869
K_234 X_NUC_4.L_CORE X_NUC_34.L_CORE 0.005891
K_235 X_NUC_4.L_CORE X_NUC_35.L_CORE 0.005822
K_236 X_NUC_4.L_CORE X_NUC_36.L_CORE 0.005741
K_237 X_NUC_4.L_CORE X_NUC_37.L_CORE 0.004125
K_238 X_NUC_4.L_CORE X_NUC_38.L_CORE 0.004072
K_239 X_NUC_4.L_CORE X_NUC_39.L_CORE 0.004046
K_240 X_NUC_4.L_CORE X_NUC_40.L_CORE 0.004075
K_241 X_NUC_4.L_CORE X_NUC_41.L_CORE 0.004617
K_242 X_NUC_4.L_CORE X_NUC_42.L_CORE 0.004657
K_243 X_NUC_4.L_CORE X_NUC_43.L_CORE 0.004557
K_244 X_NUC_4.L_CORE X_NUC_44.L_CORE 0.004595
K_245 X_NUC_4.L_CORE X_NUC_45.L_CORE 0.004390
K_246 X_NUC_4.L_CORE X_NUC_46.L_CORE 0.004354
K_247 X_NUC_4.L_CORE X_NUC_47.L_CORE 0.004328
K_248 X_NUC_4.L_CORE X_NUC_48.L_CORE 0.004303
K_249 X_NUC_4.L_CORE X_NUC_49.L_CORE 0.003779
K_250 X_NUC_4.L_CORE X_NUC_50.L_CORE 0.003763
K_251 X_NUC_4.L_CORE X_NUC_51.L_CORE 0.003714
K_252 X_NUC_4.L_CORE X_NUC_52.L_CORE 0.003748
K_253 X_NUC_4.L_CORE X_NUC_53.L_CORE 0.004171
K_254 X_NUC_4.L_CORE X_NUC_54.L_CORE 0.004183
K_255 X_NUC_4.L_CORE X_NUC_55.L_CORE 0.004120
K_256 X_NUC_4.L_CORE X_NUC_56.L_CORE 0.004118
K_257 X_NUC_4.L_CORE X_NUC_57.L_CORE 0.003710
K_258 X_NUC_4.L_CORE X_NUC_58.L_CORE 0.003689
K_259 X_NUC_4.L_CORE X_NUC_59.L_CORE 0.003652
K_260 X_NUC_4.L_CORE X_NUC_60.L_CORE 0.003659
K_261 X_NUC_4.L_CORE X_NUC_61.L_CORE 0.030070
K_262 X_NUC_4.L_CORE X_NUC_62.L_CORE 0.006177
K_263 X_NUC_4.L_CORE X_NUC_63.L_CORE 0.006307
K_264 X_NUC_4.L_CORE X_NUC_64.L_CORE 0.006447
K_265 X_NUC_4.L_CORE X_NUC_65.L_CORE 0.004070
K_266 X_NUC_4.L_CORE X_NUC_66.L_CORE 0.005160
K_267 X_NUC_4.L_CORE X_NUC_67.L_CORE 0.003944
K_268 X_NUC_4.L_CORE X_NUC_68.L_CORE 0.003615
K_269 X_NUC_4.L_CORE X_NUC_69.L_CORE 0.003894
K_270 X_NUC_4.L_CORE X_NUC_70.L_CORE 0.003274
K_271 X_NUC_5.L_CORE X_NUC_6.L_CORE 0.207973
K_272 X_NUC_5.L_CORE X_NUC_7.L_CORE 0.207973
K_273 X_NUC_5.L_CORE X_NUC_8.L_CORE 0.207973
K_274 X_NUC_5.L_CORE X_NUC_9.L_CORE 0.005719
K_275 X_NUC_5.L_CORE X_NUC_10.L_CORE 0.005868
K_276 X_NUC_5.L_CORE X_NUC_11.L_CORE 0.005750
K_277 X_NUC_5.L_CORE X_NUC_12.L_CORE 0.005808
K_278 X_NUC_5.L_CORE X_NUC_13.L_CORE 0.007017
K_279 X_NUC_5.L_CORE X_NUC_14.L_CORE 0.007128
K_280 X_NUC_5.L_CORE X_NUC_15.L_CORE 0.007128
K_281 X_NUC_5.L_CORE X_NUC_16.L_CORE 0.006928
K_282 X_NUC_5.L_CORE X_NUC_17.L_CORE 0.008684
K_283 X_NUC_5.L_CORE X_NUC_18.L_CORE 0.008709
K_284 X_NUC_5.L_CORE X_NUC_19.L_CORE 0.008423
K_285 X_NUC_5.L_CORE X_NUC_20.L_CORE 0.008727
K_286 X_NUC_5.L_CORE X_NUC_21.L_CORE 0.004383
K_287 X_NUC_5.L_CORE X_NUC_22.L_CORE 0.004471
K_288 X_NUC_5.L_CORE X_NUC_23.L_CORE 0.004411
K_289 X_NUC_5.L_CORE X_NUC_24.L_CORE 0.004397
K_290 X_NUC_5.L_CORE X_NUC_25.L_CORE 0.008156
K_291 X_NUC_5.L_CORE X_NUC_26.L_CORE 0.008057
K_292 X_NUC_5.L_CORE X_NUC_27.L_CORE 0.008029
K_293 X_NUC_5.L_CORE X_NUC_28.L_CORE 0.007855
K_294 X_NUC_5.L_CORE X_NUC_29.L_CORE 0.004747
K_295 X_NUC_5.L_CORE X_NUC_30.L_CORE 0.004812
K_296 X_NUC_5.L_CORE X_NUC_31.L_CORE 0.004705
K_297 X_NUC_5.L_CORE X_NUC_32.L_CORE 0.004771
K_298 X_NUC_5.L_CORE X_NUC_33.L_CORE 0.004343
K_299 X_NUC_5.L_CORE X_NUC_34.L_CORE 0.004399
K_300 X_NUC_5.L_CORE X_NUC_35.L_CORE 0.004359
K_301 X_NUC_5.L_CORE X_NUC_36.L_CORE 0.004309
K_302 X_NUC_5.L_CORE X_NUC_37.L_CORE 0.006234
K_303 X_NUC_5.L_CORE X_NUC_38.L_CORE 0.006185
K_304 X_NUC_5.L_CORE X_NUC_39.L_CORE 0.006066
K_305 X_NUC_5.L_CORE X_NUC_40.L_CORE 0.006117
K_306 X_NUC_5.L_CORE X_NUC_41.L_CORE 0.003774
K_307 X_NUC_5.L_CORE X_NUC_42.L_CORE 0.003827
K_308 X_NUC_5.L_CORE X_NUC_43.L_CORE 0.003765
K_309 X_NUC_5.L_CORE X_NUC_44.L_CORE 0.003775
K_310 X_NUC_5.L_CORE X_NUC_45.L_CORE 0.004637
K_311 X_NUC_5.L_CORE X_NUC_46.L_CORE 0.004649
K_312 X_NUC_5.L_CORE X_NUC_47.L_CORE 0.004606
K_313 X_NUC_5.L_CORE X_NUC_48.L_CORE 0.004556
K_314 X_NUC_5.L_CORE X_NUC_49.L_CORE 0.004314
K_315 X_NUC_5.L_CORE X_NUC_50.L_CORE 0.004335
K_316 X_NUC_5.L_CORE X_NUC_51.L_CORE 0.004251
K_317 X_NUC_5.L_CORE X_NUC_52.L_CORE 0.004287
K_318 X_NUC_5.L_CORE X_NUC_53.L_CORE 0.003653
K_319 X_NUC_5.L_CORE X_NUC_54.L_CORE 0.003689
K_320 X_NUC_5.L_CORE X_NUC_55.L_CORE 0.003640
K_321 X_NUC_5.L_CORE X_NUC_56.L_CORE 0.003629
K_322 X_NUC_5.L_CORE X_NUC_57.L_CORE 0.004118
K_323 X_NUC_5.L_CORE X_NUC_58.L_CORE 0.004128
K_324 X_NUC_5.L_CORE X_NUC_59.L_CORE 0.004068
K_325 X_NUC_5.L_CORE X_NUC_60.L_CORE 0.004064
K_326 X_NUC_5.L_CORE X_NUC_61.L_CORE 0.006694
K_327 X_NUC_5.L_CORE X_NUC_62.L_CORE 0.024694
K_328 X_NUC_5.L_CORE X_NUC_63.L_CORE 0.004654
K_329 X_NUC_5.L_CORE X_NUC_64.L_CORE 0.005413
K_330 X_NUC_5.L_CORE X_NUC_65.L_CORE 0.006038
K_331 X_NUC_5.L_CORE X_NUC_66.L_CORE 0.003572
K_332 X_NUC_5.L_CORE X_NUC_67.L_CORE 0.005181
K_333 X_NUC_5.L_CORE X_NUC_68.L_CORE 0.003703
K_334 X_NUC_5.L_CORE X_NUC_69.L_CORE 0.003462
K_335 X_NUC_5.L_CORE X_NUC_70.L_CORE 0.003756
K_336 X_NUC_6.L_CORE X_NUC_7.L_CORE 0.207973
K_337 X_NUC_6.L_CORE X_NUC_8.L_CORE 0.207973
K_338 X_NUC_6.L_CORE X_NUC_9.L_CORE 0.005576
K_339 X_NUC_6.L_CORE X_NUC_10.L_CORE 0.005719
K_340 X_NUC_6.L_CORE X_NUC_11.L_CORE 0.005607
K_341 X_NUC_6.L_CORE X_NUC_12.L_CORE 0.005661
K_342 X_NUC_6.L_CORE X_NUC_13.L_CORE 0.006904
K_343 X_NUC_6.L_CORE X_NUC_14.L_CORE 0.007017
K_344 X_NUC_6.L_CORE X_NUC_15.L_CORE 0.007013
K_345 X_NUC_6.L_CORE X_NUC_16.L_CORE 0.006822
K_346 X_NUC_6.L_CORE X_NUC_17.L_CORE 0.008644
K_347 X_NUC_6.L_CORE X_NUC_18.L_CORE 0.008684
K_348 X_NUC_6.L_CORE X_NUC_19.L_CORE 0.008394
K_349 X_NUC_6.L_CORE X_NUC_20.L_CORE 0.008695
K_350 X_NUC_6.L_CORE X_NUC_21.L_CORE 0.004298
K_351 X_NUC_6.L_CORE X_NUC_22.L_CORE 0.004383
K_352 X_NUC_6.L_CORE X_NUC_23.L_CORE 0.004325
K_353 X_NUC_6.L_CORE X_NUC_24.L_CORE 0.004312
K_354 X_NUC_6.L_CORE X_NUC_25.L_CORE 0.008244
K_355 X_NUC_6.L_CORE X_NUC_26.L_CORE 0.008156
K_356 X_NUC_6.L_CORE X_NUC_27.L_CORE 0.008120
K_357 X_NUC_6.L_CORE X_NUC_28.L_CORE 0.007941
K_358 X_NUC_6.L_CORE X_NUC_29.L_CORE 0.004683
K_359 X_NUC_6.L_CORE X_NUC_30.L_CORE 0.004747
K_360 X_NUC_6.L_CORE X_NUC_31.L_CORE 0.004644
K_361 X_NUC_6.L_CORE X_NUC_32.L_CORE 0.004707
K_362 X_NUC_6.L_CORE X_NUC_33.L_CORE 0.004288
K_363 X_NUC_6.L_CORE X_NUC_34.L_CORE 0.004343
K_364 X_NUC_6.L_CORE X_NUC_35.L_CORE 0.004304
K_365 X_NUC_6.L_CORE X_NUC_36.L_CORE 0.004256
K_366 X_NUC_6.L_CORE X_NUC_37.L_CORE 0.006279
K_367 X_NUC_6.L_CORE X_NUC_38.L_CORE 0.006234
K_368 X_NUC_6.L_CORE X_NUC_39.L_CORE 0.006109
K_369 X_NUC_6.L_CORE X_NUC_40.L_CORE 0.006162
K_370 X_NUC_6.L_CORE X_NUC_41.L_CORE 0.003723
K_371 X_NUC_6.L_CORE X_NUC_42.L_CORE 0.003774
K_372 X_NUC_6.L_CORE X_NUC_43.L_CORE 0.003714
K_373 X_NUC_6.L_CORE X_NUC_44.L_CORE 0.003723
K_374 X_NUC_6.L_CORE X_NUC_45.L_CORE 0.004622
K_375 X_NUC_6.L_CORE X_NUC_46.L_CORE 0.004637
K_376 X_NUC_6.L_CORE X_NUC_47.L_CORE 0.004592
K_377 X_NUC_6.L_CORE X_NUC_48.L_CORE 0.004543
K_378 X_NUC_6.L_CORE X_NUC_49.L_CORE 0.004292
K_379 X_NUC_6.L_CORE X_NUC_50.L_CORE 0.004314
K_380 X_NUC_6.L_CORE X_NUC_51.L_CORE 0.004231
K_381 X_NUC_6.L_CORE X_NUC_52.L_CORE 0.004266
K_382 X_NUC_6.L_CORE X_NUC_53.L_CORE 0.003617
K_383 X_NUC_6.L_CORE X_NUC_54.L_CORE 0.003653
K_384 X_NUC_6.L_CORE X_NUC_55.L_CORE 0.003605
K_385 X_NUC_6.L_CORE X_NUC_56.L_CORE 0.003594
K_386 X_NUC_6.L_CORE X_NUC_57.L_CORE 0.004105
K_387 X_NUC_6.L_CORE X_NUC_58.L_CORE 0.004118
K_388 X_NUC_6.L_CORE X_NUC_59.L_CORE 0.004057
K_389 X_NUC_6.L_CORE X_NUC_60.L_CORE 0.004054
K_390 X_NUC_6.L_CORE X_NUC_61.L_CORE 0.006507
K_391 X_NUC_6.L_CORE X_NUC_62.L_CORE 0.027972
K_392 X_NUC_6.L_CORE X_NUC_63.L_CORE 0.004562
K_393 X_NUC_6.L_CORE X_NUC_64.L_CORE 0.005366
K_394 X_NUC_6.L_CORE X_NUC_65.L_CORE 0.006053
K_395 X_NUC_6.L_CORE X_NUC_66.L_CORE 0.003519
K_396 X_NUC_6.L_CORE X_NUC_67.L_CORE 0.005220
K_397 X_NUC_6.L_CORE X_NUC_68.L_CORE 0.003672
K_398 X_NUC_6.L_CORE X_NUC_69.L_CORE 0.003435
K_399 X_NUC_6.L_CORE X_NUC_70.L_CORE 0.003753
K_400 X_NUC_7.L_CORE X_NUC_8.L_CORE 0.207973
K_401 X_NUC_7.L_CORE X_NUC_9.L_CORE 0.005684
K_402 X_NUC_7.L_CORE X_NUC_10.L_CORE 0.005833
K_403 X_NUC_7.L_CORE X_NUC_11.L_CORE 0.005719
K_404 X_NUC_7.L_CORE X_NUC_12.L_CORE 0.005774
K_405 X_NUC_7.L_CORE X_NUC_13.L_CORE 0.006904
K_406 X_NUC_7.L_CORE X_NUC_14.L_CORE 0.007013
K_407 X_NUC_7.L_CORE X_NUC_15.L_CORE 0.007017
K_408 X_NUC_7.L_CORE X_NUC_16.L_CORE 0.006823
K_409 X_NUC_7.L_CORE X_NUC_17.L_CORE 0.008954
K_410 X_NUC_7.L_CORE X_NUC_18.L_CORE 0.008989
K_411 X_NUC_7.L_CORE X_NUC_19.L_CORE 0.008684
K_412 X_NUC_7.L_CORE X_NUC_20.L_CORE 0.009010
K_413 X_NUC_7.L_CORE X_NUC_21.L_CORE 0.004353
K_414 X_NUC_7.L_CORE X_NUC_22.L_CORE 0.004440
K_415 X_NUC_7.L_CORE X_NUC_23.L_CORE 0.004383
K_416 X_NUC_7.L_CORE X_NUC_24.L_CORE 0.004368
K_417 X_NUC_7.L_CORE X_NUC_25.L_CORE 0.008275
K_418 X_NUC_7.L_CORE X_NUC_26.L_CORE 0.008179
K_419 X_NUC_7.L_CORE X_NUC_27.L_CORE 0.008156
K_420 X_NUC_7.L_CORE X_NUC_28.L_CORE 0.007968
K_421 X_NUC_7.L_CORE X_NUC_29.L_CORE 0.004788
K_422 X_NUC_7.L_CORE X_NUC_30.L_CORE 0.004855
K_423 X_NUC_7.L_CORE X_NUC_31.L_CORE 0.004747
K_424 X_NUC_7.L_CORE X_NUC_32.L_CORE 0.004813
K_425 X_NUC_7.L_CORE X_NUC_33.L_CORE 0.004326
K_426 X_NUC_7.L_CORE X_NUC_34.L_CORE 0.004381
K_427 X_NUC_7.L_CORE X_NUC_35.L_CORE 0.004343
K_428 X_NUC_7.L_CORE X_NUC_36.L_CORE 0.004293
K_429 X_NUC_7.L_CORE X_NUC_37.L_CORE 0.006412
K_430 X_NUC_7.L_CORE X_NUC_38.L_CORE 0.006361
K_431 X_NUC_7.L_CORE X_NUC_39.L_CORE 0.006234
K_432 X_NUC_7.L_CORE X_NUC_40.L_CORE 0.006288
K_433 X_NUC_7.L_CORE X_NUC_41.L_CORE 0.003783
K_434 X_NUC_7.L_CORE X_NUC_42.L_CORE 0.003837
K_435 X_NUC_7.L_CORE X_NUC_43.L_CORE 0.003774
K_436 X_NUC_7.L_CORE X_NUC_44.L_CORE 0.003784
K_437 X_NUC_7.L_CORE X_NUC_45.L_CORE 0.004666
K_438 X_NUC_7.L_CORE X_NUC_46.L_CORE 0.004680
K_439 X_NUC_7.L_CORE X_NUC_47.L_CORE 0.004637
K_440 X_NUC_7.L_CORE X_NUC_48.L_CORE 0.004585
K_441 X_NUC_7.L_CORE X_NUC_49.L_CORE 0.004378
K_442 X_NUC_7.L_CORE X_NUC_50.L_CORE 0.004401
K_443 X_NUC_7.L_CORE X_NUC_51.L_CORE 0.004314
K_444 X_NUC_7.L_CORE X_NUC_52.L_CORE 0.004351
K_445 X_NUC_7.L_CORE X_NUC_53.L_CORE 0.003666
K_446 X_NUC_7.L_CORE X_NUC_54.L_CORE 0.003703
K_447 X_NUC_7.L_CORE X_NUC_55.L_CORE 0.003653
K_448 X_NUC_7.L_CORE X_NUC_56.L_CORE 0.003642
K_449 X_NUC_7.L_CORE X_NUC_57.L_CORE 0.004167
K_450 X_NUC_7.L_CORE X_NUC_58.L_CORE 0.004179
K_451 X_NUC_7.L_CORE X_NUC_59.L_CORE 0.004118
K_452 X_NUC_7.L_CORE X_NUC_60.L_CORE 0.004113
K_453 X_NUC_7.L_CORE X_NUC_61.L_CORE 0.006521
K_454 X_NUC_7.L_CORE X_NUC_62.L_CORE 0.025798
K_455 X_NUC_7.L_CORE X_NUC_63.L_CORE 0.004637
K_456 X_NUC_7.L_CORE X_NUC_64.L_CORE 0.005360
K_457 X_NUC_7.L_CORE X_NUC_65.L_CORE 0.006193
K_458 X_NUC_7.L_CORE X_NUC_66.L_CORE 0.003561
K_459 X_NUC_7.L_CORE X_NUC_67.L_CORE 0.005250
K_460 X_NUC_7.L_CORE X_NUC_68.L_CORE 0.003738
K_461 X_NUC_7.L_CORE X_NUC_69.L_CORE 0.003469
K_462 X_NUC_7.L_CORE X_NUC_70.L_CORE 0.003806
K_463 X_NUC_8.L_CORE X_NUC_9.L_CORE 0.005629
K_464 X_NUC_8.L_CORE X_NUC_10.L_CORE 0.005774
K_465 X_NUC_8.L_CORE X_NUC_11.L_CORE 0.005661
K_466 X_NUC_8.L_CORE X_NUC_12.L_CORE 0.005719
K_467 X_NUC_8.L_CORE X_NUC_13.L_CORE 0.007101
K_468 X_NUC_8.L_CORE X_NUC_14.L_CORE 0.007221
K_469 X_NUC_8.L_CORE X_NUC_15.L_CORE 0.007221
K_470 X_NUC_8.L_CORE X_NUC_16.L_CORE 0.007017
K_471 X_NUC_8.L_CORE X_NUC_17.L_CORE 0.008626
K_472 X_NUC_8.L_CORE X_NUC_18.L_CORE 0.008658
K_473 X_NUC_8.L_CORE X_NUC_19.L_CORE 0.008377
K_474 X_NUC_8.L_CORE X_NUC_20.L_CORE 0.008684
K_475 X_NUC_8.L_CORE X_NUC_21.L_CORE 0.004366
K_476 X_NUC_8.L_CORE X_NUC_22.L_CORE 0.004454
K_477 X_NUC_8.L_CORE X_NUC_23.L_CORE 0.004395
K_478 X_NUC_8.L_CORE X_NUC_24.L_CORE 0.004383
K_479 X_NUC_8.L_CORE X_NUC_25.L_CORE 0.008479
K_480 X_NUC_8.L_CORE X_NUC_26.L_CORE 0.008376
K_481 X_NUC_8.L_CORE X_NUC_27.L_CORE 0.008344
K_482 X_NUC_8.L_CORE X_NUC_28.L_CORE 0.008156
K_483 X_NUC_8.L_CORE X_NUC_29.L_CORE 0.004721
K_484 X_NUC_8.L_CORE X_NUC_30.L_CORE 0.004786
K_485 X_NUC_8.L_CORE X_NUC_31.L_CORE 0.004681
K_486 X_NUC_8.L_CORE X_NUC_32.L_CORE 0.004747
K_487 X_NUC_8.L_CORE X_NUC_33.L_CORE 0.004376
K_488 X_NUC_8.L_CORE X_NUC_34.L_CORE 0.004434
K_489 X_NUC_8.L_CORE X_NUC_35.L_CORE 0.004394
K_490 X_NUC_8.L_CORE X_NUC_36.L_CORE 0.004343
K_491 X_NUC_8.L_CORE X_NUC_37.L_CORE 0.006352
K_492 X_NUC_8.L_CORE X_NUC_38.L_CORE 0.006303
K_493 X_NUC_8.L_CORE X_NUC_39.L_CORE 0.006177
K_494 X_NUC_8.L_CORE X_NUC_40.L_CORE 0.006234
K_495 X_NUC_8.L_CORE X_NUC_41.L_CORE 0.003773
K_496 X_NUC_8.L_CORE X_NUC_42.L_CORE 0.003826
K_497 X_NUC_8.L_CORE X_NUC_43.L_CORE 0.003764
K_498 X_NUC_8.L_CORE X_NUC_44.L_CORE 0.003774
K_499 X_NUC_8.L_CORE X_NUC_45.L_CORE 0.004719
K_500 X_NUC_8.L_CORE X_NUC_46.L_CORE 0.004734
K_501 X_NUC_8.L_CORE X_NUC_47.L_CORE 0.004688
K_502 X_NUC_8.L_CORE X_NUC_48.L_CORE 0.004637
K_503 X_NUC_8.L_CORE X_NUC_49.L_CORE 0.004339
K_504 X_NUC_8.L_CORE X_NUC_50.L_CORE 0.004362
K_505 X_NUC_8.L_CORE X_NUC_51.L_CORE 0.004277
K_506 X_NUC_8.L_CORE X_NUC_52.L_CORE 0.004314
K_507 X_NUC_8.L_CORE X_NUC_53.L_CORE 0.003678
K_508 X_NUC_8.L_CORE X_NUC_54.L_CORE 0.003715
K_509 X_NUC_8.L_CORE X_NUC_55.L_CORE 0.003664
K_510 X_NUC_8.L_CORE X_NUC_56.L_CORE 0.003653
K_511 X_NUC_8.L_CORE X_NUC_57.L_CORE 0.004171
K_512 X_NUC_8.L_CORE X_NUC_58.L_CORE 0.004183
K_513 X_NUC_8.L_CORE X_NUC_59.L_CORE 0.004121
K_514 X_NUC_8.L_CORE X_NUC_60.L_CORE 0.004118
K_515 X_NUC_8.L_CORE X_NUC_61.L_CORE 0.006597
K_516 X_NUC_8.L_CORE X_NUC_62.L_CORE 0.025663
K_517 X_NUC_8.L_CORE X_NUC_63.L_CORE 0.004594
K_518 X_NUC_8.L_CORE X_NUC_64.L_CORE 0.005486
K_519 X_NUC_8.L_CORE X_NUC_65.L_CORE 0.006045
K_520 X_NUC_8.L_CORE X_NUC_66.L_CORE 0.003569
K_521 X_NUC_8.L_CORE X_NUC_67.L_CORE 0.005309
K_522 X_NUC_8.L_CORE X_NUC_68.L_CORE 0.003704
K_523 X_NUC_8.L_CORE X_NUC_69.L_CORE 0.003492
K_524 X_NUC_8.L_CORE X_NUC_70.L_CORE 0.003799
K_525 X_NUC_9.L_CORE X_NUC_10.L_CORE 0.207973
K_526 X_NUC_9.L_CORE X_NUC_11.L_CORE 0.207973
K_527 X_NUC_9.L_CORE X_NUC_12.L_CORE 0.207973
K_528 X_NUC_9.L_CORE X_NUC_13.L_CORE 0.004846
K_529 X_NUC_9.L_CORE X_NUC_14.L_CORE 0.004793
K_530 X_NUC_9.L_CORE X_NUC_15.L_CORE 0.004861
K_531 X_NUC_9.L_CORE X_NUC_16.L_CORE 0.004763
K_532 X_NUC_9.L_CORE X_NUC_17.L_CORE 0.006218
K_533 X_NUC_9.L_CORE X_NUC_18.L_CORE 0.006047
K_534 X_NUC_9.L_CORE X_NUC_19.L_CORE 0.006080
K_535 X_NUC_9.L_CORE X_NUC_20.L_CORE 0.006122
K_536 X_NUC_9.L_CORE X_NUC_21.L_CORE 0.008224
K_537 X_NUC_9.L_CORE X_NUC_22.L_CORE 0.008357
K_538 X_NUC_9.L_CORE X_NUC_23.L_CORE 0.008310
K_539 X_NUC_9.L_CORE X_NUC_24.L_CORE 0.008059
K_540 X_NUC_9.L_CORE X_NUC_25.L_CORE 0.003987
K_541 X_NUC_9.L_CORE X_NUC_26.L_CORE 0.003927
K_542 X_NUC_9.L_CORE X_NUC_27.L_CORE 0.003961
K_543 X_NUC_9.L_CORE X_NUC_28.L_CORE 0.003921
K_544 X_NUC_9.L_CORE X_NUC_29.L_CORE 0.008378
K_545 X_NUC_9.L_CORE X_NUC_30.L_CORE 0.008268
K_546 X_NUC_9.L_CORE X_NUC_31.L_CORE 0.008060
K_547 X_NUC_9.L_CORE X_NUC_32.L_CORE 0.008231
K_548 X_NUC_9.L_CORE X_NUC_33.L_CORE 0.004510
K_549 X_NUC_9.L_CORE X_NUC_34.L_CORE 0.004499
K_550 X_NUC_9.L_CORE X_NUC_35.L_CORE 0.004512
K_551 X_NUC_9.L_CORE X_NUC_36.L_CORE 0.004430
K_552 X_NUC_9.L_CORE X_NUC_37.L_CORE 0.004155
K_553 X_NUC_9.L_CORE X_NUC_38.L_CORE 0.004086
K_554 X_NUC_9.L_CORE X_NUC_39.L_CORE 0.004092
K_555 X_NUC_9.L_CORE X_NUC_40.L_CORE 0.004087
K_556 X_NUC_9.L_CORE X_NUC_41.L_CORE 0.006456
K_557 X_NUC_9.L_CORE X_NUC_42.L_CORE 0.006505
K_558 X_NUC_9.L_CORE X_NUC_43.L_CORE 0.006361
K_559 X_NUC_9.L_CORE X_NUC_44.L_CORE 0.006332
K_560 X_NUC_9.L_CORE X_NUC_45.L_CORE 0.003666
K_561 X_NUC_9.L_CORE X_NUC_46.L_CORE 0.003634
K_562 X_NUC_9.L_CORE X_NUC_47.L_CORE 0.003642
K_563 X_NUC_9.L_CORE X_NUC_48.L_CORE 0.003603
K_564 X_NUC_9.L_CORE X_NUC_49.L_CORE 0.004642
K_565 X_NUC_9.L_CORE X_NUC_50.L_CORE 0.004591
K_566 X_NUC_9.L_CORE X_NUC_51.L_CORE 0.004547
K_567 X_NUC_9.L_CORE X_NUC_52.L_CORE 0.004562
K_568 X_NUC_9.L_CORE X_NUC_53.L_CORE 0.004314
K_569 X_NUC_9.L_CORE X_NUC_54.L_CORE 0.004310
K_570 X_NUC_9.L_CORE X_NUC_55.L_CORE 0.004278
K_571 X_NUC_9.L_CORE X_NUC_56.L_CORE 0.004237
K_572 X_NUC_9.L_CORE X_NUC_57.L_CORE 0.003748
K_573 X_NUC_9.L_CORE X_NUC_58.L_CORE 0.003716
K_574 X_NUC_9.L_CORE X_NUC_59.L_CORE 0.003702
K_575 X_NUC_9.L_CORE X_NUC_60.L_CORE 0.003684
K_576 X_NUC_9.L_CORE X_NUC_61.L_CORE 0.007395
K_577 X_NUC_9.L_CORE X_NUC_62.L_CORE 0.004703
K_578 X_NUC_9.L_CORE X_NUC_63.L_CORE 0.023541
K_579 X_NUC_9.L_CORE X_NUC_64.L_CORE 0.003964
K_580 X_NUC_9.L_CORE X_NUC_65.L_CORE 0.004836
K_581 X_NUC_9.L_CORE X_NUC_66.L_CORE 0.005797
K_582 X_NUC_9.L_CORE X_NUC_67.L_CORE 0.003305
K_583 X_NUC_9.L_CORE X_NUC_68.L_CORE 0.005084
K_584 X_NUC_9.L_CORE X_NUC_69.L_CORE 0.003603
K_585 X_NUC_9.L_CORE X_NUC_70.L_CORE 0.003440
K_586 X_NUC_10.L_CORE X_NUC_11.L_CORE 0.207973
K_587 X_NUC_10.L_CORE X_NUC_12.L_CORE 0.207973
K_588 X_NUC_10.L_CORE X_NUC_13.L_CORE 0.004897
K_589 X_NUC_10.L_CORE X_NUC_14.L_CORE 0.004846
K_590 X_NUC_10.L_CORE X_NUC_15.L_CORE 0.004914
K_591 X_NUC_10.L_CORE X_NUC_16.L_CORE 0.004813
K_592 X_NUC_10.L_CORE X_NUC_17.L_CORE 0.006399
K_593 X_NUC_10.L_CORE X_NUC_18.L_CORE 0.006218
K_594 X_NUC_10.L_CORE X_NUC_19.L_CORE 0.006252
K_595 X_NUC_10.L_CORE X_NUC_20.L_CORE 0.006296
K_596 X_NUC_10.L_CORE X_NUC_21.L_CORE 0.008084