* Applied Vacuum Engineering (AVE) - SPICE Netlist
* Element: Nickel-59 (Z=28, A=59)
* Auto-generated topological mutual impedance array
* Nodes: 59



* -----------------------------------------------------------------
* NUCLEON (Baseline 6^3_2 Topological Defect)
* -----------------------------------------------------------------
.SUBCKT NUCLEON IN OUT
L_CORE IN OUT 1uH
C_CORE IN OUT 1pF
.ENDS NUCLEON



* -----------------------------------------------------------------
* MACROSCOPIC TOPOLOGY (Nucleon Array)
* -----------------------------------------------------------------
V_STIM NODE_1 0 AC 1 PULSE(0 100k 10n 1n 1n 50n 100n)

X_NUC_1 NODE_1 0 NUCLEON
X_NUC_2 NODE_2 0 NUCLEON
X_NUC_3 NODE_3 0 NUCLEON
X_NUC_4 NODE_4 0 NUCLEON
X_NUC_5 NODE_5 0 NUCLEON
X_NUC_6 NODE_6 0 NUCLEON
X_NUC_7 NODE_7 0 NUCLEON
X_NUC_8 NODE_8 0 NUCLEON
X_NUC_9 NODE_9 0 NUCLEON
X_NUC_10 NODE_10 0 NUCLEON
X_NUC_11 NODE_11 0 NUCLEON
X_NUC_12 NODE_12 0 NUCLEON
X_NUC_13 NODE_13 0 NUCLEON
X_NUC_14 NODE_14 0 NUCLEON
X_NUC_15 NODE_15 0 NUCLEON
X_NUC_16 NODE_16 0 NUCLEON
X_NUC_17 NODE_17 0 NUCLEON
X_NUC_18 NODE_18 0 NUCLEON
X_NUC_19 NODE_19 0 NUCLEON
X_NUC_20 NODE_20 0 NUCLEON
X_NUC_21 NODE_21 0 NUCLEON
X_NUC_22 NODE_22 0 NUCLEON
X_NUC_23 NODE_23 0 NUCLEON
X_NUC_24 NODE_24 0 NUCLEON
X_NUC_25 NODE_25 0 NUCLEON
X_NUC_26 NODE_26 0 NUCLEON
X_NUC_27 NODE_27 0 NUCLEON
X_NUC_28 NODE_28 0 NUCLEON
X_NUC_29 NODE_29 0 NUCLEON
X_NUC_30 NODE_30 0 NUCLEON
X_NUC_31 NODE_31 0 NUCLEON
X_NUC_32 NODE_32 0 NUCLEON
X_NUC_33 NODE_33 0 NUCLEON
X_NUC_34 NODE_34 0 NUCLEON
X_NUC_35 NODE_35 0 NUCLEON
X_NUC_36 NODE_36 0 NUCLEON
X_NUC_37 NODE_37 0 NUCLEON
X_NUC_38 NODE_38 0 NUCLEON
X_NUC_39 NODE_39 0 NUCLEON
X_NUC_40 NODE_40 0 NUCLEON
X_NUC_41 NODE_41 0 NUCLEON
X_NUC_42 NODE_42 0 NUCLEON
X_NUC_43 NODE_43 0 NUCLEON
X_NUC_44 NODE_44 0 NUCLEON
X_NUC_45 NODE_45 0 NUCLEON
X_NUC_46 NODE_46 0 NUCLEON
X_NUC_47 NODE_47 0 NUCLEON
X_NUC_48 NODE_48 0 NUCLEON
X_NUC_49 NODE_49 0 NUCLEON
X_NUC_50 NODE_50 0 NUCLEON
X_NUC_51 NODE_51 0 NUCLEON
X_NUC_52 NODE_52 0 NUCLEON
X_NUC_53 NODE_53 0 NUCLEON
X_NUC_54 NODE_54 0 NUCLEON
X_NUC_55 NODE_55 0 NUCLEON
X_NUC_56 NODE_56 0 NUCLEON
X_NUC_57 NODE_57 0 NUCLEON
X_NUC_58 NODE_58 0 NUCLEON
X_NUC_59 NODE_59 0 NUCLEON


* -----------------------------------------------------------------
* SPATIAL MUTUAL INDUCTANCE (K-FACTORS)
* -----------------------------------------------------------------
K_1 X_NUC_1.L_CORE X_NUC_2.L_CORE 0.207973
K_2 X_NUC_1.L_CORE X_NUC_3.L_CORE 0.207973
K_3 X_NUC_1.L_CORE X_NUC_4.L_CORE 0.207973
K_4 X_NUC_1.L_CORE X_NUC_5.L_CORE 0.008829
K_5 X_NUC_1.L_CORE X_NUC_6.L_CORE 0.008489
K_6 X_NUC_1.L_CORE X_NUC_7.L_CORE 0.008559
K_7 X_NUC_1.L_CORE X_NUC_8.L_CORE 0.008667
K_8 X_NUC_1.L_CORE X_NUC_9.L_CORE 0.009519
K_9 X_NUC_1.L_CORE X_NUC_10.L_CORE 0.009676
K_10 X_NUC_1.L_CORE X_NUC_11.L_CORE 0.009308
K_11 X_NUC_1.L_CORE X_NUC_12.L_CORE 0.009683
K_12 X_NUC_1.L_CORE X_NUC_13.L_CORE 0.010038
K_13 X_NUC_1.L_CORE X_NUC_14.L_CORE 0.009813
K_14 X_NUC_1.L_CORE X_NUC_15.L_CORE 0.009915
K_15 X_NUC_1.L_CORE X_NUC_16.L_CORE 0.009594
K_16 X_NUC_1.L_CORE X_NUC_17.L_CORE 0.005826
K_17 X_NUC_1.L_CORE X_NUC_18.L_CORE 0.005734
K_18 X_NUC_1.L_CORE X_NUC_19.L_CORE 0.005678
K_19 X_NUC_1.L_CORE X_NUC_20.L_CORE 0.005791
K_20 X_NUC_1.L_CORE X_NUC_21.L_CORE 0.008320
K_21 X_NUC_1.L_CORE X_NUC_22.L_CORE 0.008554
K_22 X_NUC_1.L_CORE X_NUC_23.L_CORE 0.008252
K_23 X_NUC_1.L_CORE X_NUC_24.L_CORE 0.008269
K_24 X_NUC_1.L_CORE X_NUC_25.L_CORE 0.005769
K_25 X_NUC_1.L_CORE X_NUC_26.L_CORE 0.005645
K_26 X_NUC_1.L_CORE X_NUC_27.L_CORE 0.005653
K_27 X_NUC_1.L_CORE X_NUC_28.L_CORE 0.005629
K_28 X_NUC_1.L_CORE X_NUC_29.L_CORE 0.005264
K_29 X_NUC_1.L_CORE X_NUC_30.L_CORE 0.005265
K_30 X_NUC_1.L_CORE X_NUC_31.L_CORE 0.005156
K_31 X_NUC_1.L_CORE X_NUC_32.L_CORE 0.005255
K_32 X_NUC_1.L_CORE X_NUC_33.L_CORE 0.006319
K_33 X_NUC_1.L_CORE X_NUC_34.L_CORE 0.006338
K_34 X_NUC_1.L_CORE X_NUC_35.L_CORE 0.006255
K_35 X_NUC_1.L_CORE X_NUC_36.L_CORE 0.006168
K_36 X_NUC_1.L_CORE X_NUC_37.L_CORE 0.004555
K_37 X_NUC_1.L_CORE X_NUC_38.L_CORE 0.004493
K_38 X_NUC_1.L_CORE X_NUC_39.L_CORE 0.004459
K_39 X_NUC_1.L_CORE X_NUC_40.L_CORE 0.004491
K_40 X_NUC_1.L_CORE X_NUC_41.L_CORE 0.005080
K_41 X_NUC_1.L_CORE X_NUC_42.L_CORE 0.005121
K_42 X_NUC_1.L_CORE X_NUC_43.L_CORE 0.005003
K_43 X_NUC_1.L_CORE X_NUC_44.L_CORE 0.005044
K_44 X_NUC_1.L_CORE X_NUC_45.L_CORE 0.004761
K_45 X_NUC_1.L_CORE X_NUC_46.L_CORE 0.004722
K_46 X_NUC_1.L_CORE X_NUC_47.L_CORE 0.004686
K_47 X_NUC_1.L_CORE X_NUC_48.L_CORE 0.004661
K_48 X_NUC_1.L_CORE X_NUC_49.L_CORE 0.004216
K_49 X_NUC_1.L_CORE X_NUC_50.L_CORE 0.004197
K_50 X_NUC_1.L_CORE X_NUC_51.L_CORE 0.004137
K_51 X_NUC_1.L_CORE X_NUC_52.L_CORE 0.004173
K_52 X_NUC_1.L_CORE X_NUC_53.L_CORE 0.004454
K_53 X_NUC_1.L_CORE X_NUC_54.L_CORE 0.004455
K_54 X_NUC_1.L_CORE X_NUC_55.L_CORE 0.004387
K_55 X_NUC_1.L_CORE X_NUC_56.L_CORE 0.004390
K_56 X_NUC_1.L_CORE X_NUC_57.L_CORE 0.014798
K_57 X_NUC_1.L_CORE X_NUC_58.L_CORE 0.004528
K_58 X_NUC_1.L_CORE X_NUC_59.L_CORE 0.004092
K_59 X_NUC_2.L_CORE X_NUC_3.L_CORE 0.207973
K_60 X_NUC_2.L_CORE X_NUC_4.L_CORE 0.207973
K_61 X_NUC_2.L_CORE X_NUC_5.L_CORE 0.009194
K_62 X_NUC_2.L_CORE X_NUC_6.L_CORE 0.008829
K_63 X_NUC_2.L_CORE X_NUC_7.L_CORE 0.008899
K_64 X_NUC_2.L_CORE X_NUC_8.L_CORE 0.009020
K_65 X_NUC_2.L_CORE X_NUC_9.L_CORE 0.009351
K_66 X_NUC_2.L_CORE X_NUC_10.L_CORE 0.009519
K_67 X_NUC_2.L_CORE X_NUC_11.L_CORE 0.009159
K_68 X_NUC_2.L_CORE X_NUC_12.L_CORE 0.009516
K_69 X_NUC_2.L_CORE X_NUC_13.L_CORE 0.010254
K_70 X_NUC_2.L_CORE X_NUC_14.L_CORE 0.010038
K_71 X_NUC_2.L_CORE X_NUC_15.L_CORE 0.010135
K_72 X_NUC_2.L_CORE X_NUC_16.L_CORE 0.009793
K_73 X_NUC_2.L_CORE X_NUC_17.L_CORE 0.005917
K_74 X_NUC_2.L_CORE X_NUC_18.L_CORE 0.005826
K_75 X_NUC_2.L_CORE X_NUC_19.L_CORE 0.005765
K_76 X_NUC_2.L_CORE X_NUC_20.L_CORE 0.005883
K_77 X_NUC_2.L_CORE X_NUC_21.L_CORE 0.008092
K_78 X_NUC_2.L_CORE X_NUC_22.L_CORE 0.008320
K_79 X_NUC_2.L_CORE X_NUC_23.L_CORE 0.008035
K_80 X_NUC_2.L_CORE X_NUC_24.L_CORE 0.008051
K_81 X_NUC_2.L_CORE X_NUC_25.L_CORE 0.005897
K_82 X_NUC_2.L_CORE X_NUC_26.L_CORE 0.005769
K_83 X_NUC_2.L_CORE X_NUC_27.L_CORE 0.005775
K_84 X_NUC_2.L_CORE X_NUC_28.L_CORE 0.005749
K_85 X_NUC_2.L_CORE X_NUC_29.L_CORE 0.005259
K_86 X_NUC_2.L_CORE X_NUC_30.L_CORE 0.005264
K_87 X_NUC_2.L_CORE X_NUC_31.L_CORE 0.005153
K_88 X_NUC_2.L_CORE X_NUC_32.L_CORE 0.005252
K_89 X_NUC_2.L_CORE X_NUC_33.L_CORE 0.006294
K_90 X_NUC_2.L_CORE X_NUC_34.L_CORE 0.006319
K_91 X_NUC_2.L_CORE X_NUC_35.L_CORE 0.006234
K_92 X_NUC_2.L_CORE X_NUC_36.L_CORE 0.006148
K_93 X_NUC_2.L_CORE X_NUC_37.L_CORE 0.004617
K_94 X_NUC_2.L_CORE X_NUC_38.L_CORE 0.004555
K_95 X_NUC_2.L_CORE X_NUC_39.L_CORE 0.004518
K_96 X_NUC_2.L_CORE X_NUC_40.L_CORE 0.004552
K_97 X_NUC_2.L_CORE X_NUC_41.L_CORE 0.005037
K_98 X_NUC_2.L_CORE X_NUC_42.L_CORE 0.005080
K_99 X_NUC_2.L_CORE X_NUC_43.L_CORE 0.004963
K_100 X_NUC_2.L_CORE X_NUC_44.L_CORE 0.005004
K_101 X_NUC_2.L_CORE X_NUC_45.L_CORE 0.004799
K_102 X_NUC_2.L_CORE X_NUC_46.L_CORE 0.004761
K_103 X_NUC_2.L_CORE X_NUC_47.L_CORE 0.004723
K_104 X_NUC_2.L_CORE X_NUC_48.L_CORE 0.004698
K_105 X_NUC_2.L_CORE X_NUC_49.L_CORE 0.004234
K_106 X_NUC_2.L_CORE X_NUC_50.L_CORE 0.004216
K_107 X_NUC_2.L_CORE X_NUC_51.L_CORE 0.004154
K_108 X_NUC_2.L_CORE X_NUC_52.L_CORE 0.004190
K_109 X_NUC_2.L_CORE X_NUC_53.L_CORE 0.004450
K_110 X_NUC_2.L_CORE X_NUC_54.L_CORE 0.004454
K_111 X_NUC_2.L_CORE X_NUC_55.L_CORE 0.004384
K_112 X_NUC_2.L_CORE X_NUC_56.L_CORE 0.004387
K_113 X_NUC_2.L_CORE X_NUC_57.L_CORE 0.014101
K_114 X_NUC_2.L_CORE X_NUC_58.L_CORE 0.004611
K_115 X_NUC_2.L_CORE X_NUC_59.L_CORE 0.004074
K_116 X_NUC_3.L_CORE X_NUC_4.L_CORE 0.207973
K_117 X_NUC_3.L_CORE X_NUC_5.L_CORE 0.009108
K_118 X_NUC_3.L_CORE X_NUC_6.L_CORE 0.008744
K_119 X_NUC_3.L_CORE X_NUC_7.L_CORE 0.008829
K_120 X_NUC_3.L_CORE X_NUC_8.L_CORE 0.008938
K_121 X_NUC_3.L_CORE X_NUC_9.L_CORE 0.009725
K_122 X_NUC_3.L_CORE X_NUC_10.L_CORE 0.009903
K_123 X_NUC_3.L_CORE X_NUC_11.L_CORE 0.009519
K_124 X_NUC_3.L_CORE X_NUC_12.L_CORE 0.009910
K_125 X_NUC_3.L_CORE X_NUC_13.L_CORE 0.010141
K_126 X_NUC_3.L_CORE X_NUC_14.L_CORE 0.009921
K_127 X_NUC_3.L_CORE X_NUC_15.L_CORE 0.010038
K_128 X_NUC_3.L_CORE X_NUC_16.L_CORE 0.009694
K_129 X_NUC_3.L_CORE X_NUC_17.L_CORE 0.005981
K_130 X_NUC_3.L_CORE X_NUC_18.L_CORE 0.005884
K_131 X_NUC_3.L_CORE X_NUC_19.L_CORE 0.005826
K_132 X_NUC_3.L_CORE X_NUC_20.L_CORE 0.005945
K_133 X_NUC_3.L_CORE X_NUC_21.L_CORE 0.008375
K_134 X_NUC_3.L_CORE X_NUC_22.L_CORE 0.008622
K_135 X_NUC_3.L_CORE X_NUC_23.L_CORE 0.008320
K_136 X_NUC_3.L_CORE X_NUC_24.L_CORE 0.008330
K_137 X_NUC_3.L_CORE X_NUC_25.L_CORE 0.005888
K_138 X_NUC_3.L_CORE X_NUC_26.L_CORE 0.005758
K_139 X_NUC_3.L_CORE X_NUC_27.L_CORE 0.005769
K_140 X_NUC_3.L_CORE X_NUC_28.L_CORE 0.005741
K_141 X_NUC_3.L_CORE X_NUC_29.L_CORE 0.005375
K_142 X_NUC_3.L_CORE X_NUC_30.L_CORE 0.005379
K_143 X_NUC_3.L_CORE X_NUC_31.L_CORE 0.005264
K_144 X_NUC_3.L_CORE X_NUC_32.L_CORE 0.005368
K_145 X_NUC_3.L_CORE X_NUC_33.L_CORE 0.006378
K_146 X_NUC_3.L_CORE X_NUC_34.L_CORE 0.006401
K_147 X_NUC_3.L_CORE X_NUC_35.L_CORE 0.006319
K_148 X_NUC_3.L_CORE X_NUC_36.L_CORE 0.006226
K_149 X_NUC_3.L_CORE X_NUC_37.L_CORE 0.004655
K_150 X_NUC_3.L_CORE X_NUC_38.L_CORE 0.004590
K_151 X_NUC_3.L_CORE X_NUC_39.L_CORE 0.004555
K_152 X_NUC_3.L_CORE X_NUC_40.L_CORE 0.004588
K_153 X_NUC_3.L_CORE X_NUC_41.L_CORE 0.005157
K_154 X_NUC_3.L_CORE X_NUC_42.L_CORE 0.005202
K_155 X_NUC_3.L_CORE X_NUC_43.L_CORE 0.005080
K_156 X_NUC_3.L_CORE X_NUC_44.L_CORE 0.005121
K_157 X_NUC_3.L_CORE X_NUC_45.L_CORE 0.004838
K_158 X_NUC_3.L_CORE X_NUC_46.L_CORE 0.004798
K_159 X_NUC_3.L_CORE X_NUC_47.L_CORE 0.004761
K_160 X_NUC_3.L_CORE X_NUC_48.L_CORE 0.004734
K_161 X_NUC_3.L_CORE X_NUC_49.L_CORE 0.004298
K_162 X_NUC_3.L_CORE X_NUC_50.L_CORE 0.004279
K_163 X_NUC_3.L_CORE X_NUC_51.L_CORE 0.004216
K_164 X_NUC_3.L_CORE X_NUC_52.L_CORE 0.004253
K_165 X_NUC_3.L_CORE X_NUC_53.L_CORE 0.004522
K_166 X_NUC_3.L_CORE X_NUC_54.L_CORE 0.004525
K_167 X_NUC_3.L_CORE X_NUC_55.L_CORE 0.004454
K_168 X_NUC_3.L_CORE X_NUC_56.L_CORE 0.004456
K_169 X_NUC_3.L_CORE X_NUC_57.L_CORE 0.014209
K_170 X_NUC_3.L_CORE X_NUC_58.L_CORE 0.004615
K_171 X_NUC_3.L_CORE X_NUC_59.L_CORE 0.004151
K_172 X_NUC_4.L_CORE X_NUC_5.L_CORE 0.008983
K_173 X_NUC_4.L_CORE X_NUC_6.L_CORE 0.008634
K_174 X_NUC_4.L_CORE X_NUC_7.L_CORE 0.008707
K_175 X_NUC_4.L_CORE X_NUC_8.L_CORE 0.008829
K_176 X_NUC_4.L_CORE X_NUC_9.L_CORE 0.009345
K_177 X_NUC_4.L_CORE X_NUC_10.L_CORE 0.009503
K_178 X_NUC_4.L_CORE X_NUC_11.L_CORE 0.009154
K_179 X_NUC_4.L_CORE X_NUC_12.L_CORE 0.009519
K_180 X_NUC_4.L_CORE X_NUC_13.L_CORE 0.010523
K_181 X_NUC_4.L_CORE X_NUC_14.L_CORE 0.010277
K_182 X_NUC_4.L_CORE X_NUC_15.L_CORE 0.010394
K_183 X_NUC_4.L_CORE X_NUC_16.L_CORE 0.010038
K_184 X_NUC_4.L_CORE X_NUC_17.L_CORE 0.005857
K_185 X_NUC_4.L_CORE X_NUC_18.L_CORE 0.005766
K_186 X_NUC_4.L_CORE X_NUC_19.L_CORE 0.005709
K_187 X_NUC_4.L_CORE X_NUC_20.L_CORE 0.005826
K_188 X_NUC_4.L_CORE X_NUC_21.L_CORE 0.008358
K_189 X_NUC_4.L_CORE X_NUC_22.L_CORE 0.008603
K_190 X_NUC_4.L_CORE X_NUC_23.L_CORE 0.008296
K_191 X_NUC_4.L_CORE X_NUC_24.L_CORE 0.008320
K_192 X_NUC_4.L_CORE X_NUC_25.L_CORE 0.005916
K_193 X_NUC_4.L_CORE X_NUC_26.L_CORE 0.005785
K_194 X_NUC_4.L_CORE X_NUC_27.L_CORE 0.005793
K_195 X_NUC_4.L_CORE X_NUC_28.L_CORE 0.005769
K_196 X_NUC_4.L_CORE X_NUC_29.L_CORE 0.005269
K_197 X_NUC_4.L_CORE X_NUC_30.L_CORE 0.005272
K_198 X_NUC_4.L_CORE X_NUC_31.L_CORE 0.005162
K_199 X_NUC_4.L_CORE X_NUC_32.L_CORE 0.005264
K_200 X_NUC_4.L_CORE X_NUC_33.L_CORE 0.006474
K_201 X_NUC_4.L_CORE X_NUC_34.L_CORE 0.006498
K_202 X_NUC_4.L_CORE X_NUC_35.L_CORE 0.006409
K_203 X_NUC_4.L_CORE X_NUC_36.L_CORE 0.006319
K_204 X_NUC_4.L_CORE X_NUC_37.L_CORE 0.004619
K_205 X_NUC_4.L_CORE X_NUC_38.L_CORE 0.004556
K_206 X_NUC_4.L_CORE X_NUC_39.L_CORE 0.004520
K_207 X_NUC_4.L_CORE X_NUC_40.L_CORE 0.004555
K_208 X_NUC_4.L_CORE X_NUC_41.L_CORE 0.005114
K_209 X_NUC_4.L_CORE X_NUC_42.L_CORE 0.005157
K_210 X_NUC_4.L_CORE X_NUC_43.L_CORE 0.005037
K_211 X_NUC_4.L_CORE X_NUC_44.L_CORE 0.005080
K_212 X_NUC_4.L_CORE X_NUC_45.L_CORE 0.004865
K_213 X_NUC_4.L_CORE X_NUC_46.L_CORE 0.004825
K_214 X_NUC_4.L_CORE X_NUC_47.L_CORE 0.004786
K_215 X_NUC_4.L_CORE X_NUC_48.L_CORE 0.004761
K_216 X_NUC_4.L_CORE X_NUC_49.L_CORE 0.004259
K_217 X_NUC_4.L_CORE X_NUC_50.L_CORE 0.004240
K_218 X_NUC_4.L_CORE X_NUC_51.L_CORE 0.004178
K_219 X_NUC_4.L_CORE X_NUC_52.L_CORE 0.004216
K_220 X_NUC_4.L_CORE X_NUC_53.L_CORE 0.004519
K_221 X_NUC_4.L_CORE X_NUC_54.L_CORE 0.004521
K_222 X_NUC_4.L_CORE X_NUC_55.L_CORE 0.004450
K_223 X_NUC_4.L_CORE X_NUC_56.L_CORE 0.004454
K_224 X_NUC_4.L_CORE X_NUC_57.L_CORE 0.014923
K_225 X_NUC_4.L_CORE X_NUC_58.L_CORE 0.004597
K_226 X_NUC_4.L_CORE X_NUC_59.L_CORE 0.004115
K_227 X_NUC_5.L_CORE X_NUC_6.L_CORE 0.207973
K_228 X_NUC_5.L_CORE X_NUC_7.L_CORE 0.207973
K_229 X_NUC_5.L_CORE X_NUC_8.L_CORE 0.207973
K_230 X_NUC_5.L_CORE X_NUC_9.L_CORE 0.006371
K_231 X_NUC_5.L_CORE X_NUC_10.L_CORE 0.006557
K_232 X_NUC_5.L_CORE X_NUC_11.L_CORE 0.006409
K_233 X_NUC_5.L_CORE X_NUC_12.L_CORE 0.006481
K_234 X_NUC_5.L_CORE X_NUC_13.L_CORE 0.007821
K_235 X_NUC_5.L_CORE X_NUC_14.L_CORE 0.007959
K_236 X_NUC_5.L_CORE X_NUC_15.L_CORE 0.007956
K_237 X_NUC_5.L_CORE X_NUC_16.L_CORE 0.007709
K_238 X_NUC_5.L_CORE X_NUC_17.L_CORE 0.009653
K_239 X_NUC_5.L_CORE X_NUC_18.L_CORE 0.009686
K_240 X_NUC_5.L_CORE X_NUC_19.L_CORE 0.009330
K_241 X_NUC_5.L_CORE X_NUC_20.L_CORE 0.009699
K_242 X_NUC_5.L_CORE X_NUC_21.L_CORE 0.004901
K_243 X_NUC_5.L_CORE X_NUC_22.L_CORE 0.005011
K_244 X_NUC_5.L_CORE X_NUC_23.L_CORE 0.004935
K_245 X_NUC_5.L_CORE X_NUC_24.L_CORE 0.004918
K_246 X_NUC_5.L_CORE X_NUC_25.L_CORE 0.008998
K_247 X_NUC_5.L_CORE X_NUC_26.L_CORE 0.008888
K_248 X_NUC_5.L_CORE X_NUC_27.L_CORE 0.008839
K_249 X_NUC_5.L_CORE X_NUC_28.L_CORE 0.008636
K_250 X_NUC_5.L_CORE X_NUC_29.L_CORE 0.005308
K_251 X_NUC_5.L_CORE X_NUC_30.L_CORE 0.005388
K_252 X_NUC_5.L_CORE X_NUC_31.L_CORE 0.005254
K_253 X_NUC_5.L_CORE X_NUC_32.L_CORE 0.005334
K_254 X_NUC_5.L_CORE X_NUC_33.L_CORE 0.004867
K_255 X_NUC_5.L_CORE X_NUC_34.L_CORE 0.004936
K_256 X_NUC_5.L_CORE X_NUC_35.L_CORE 0.004883
K_257 X_NUC_5.L_CORE X_NUC_36.L_CORE 0.004823
K_258 X_NUC_5.L_CORE X_NUC_37.L_CORE 0.006815
K_259 X_NUC_5.L_CORE X_NUC_38.L_CORE 0.006767
K_260 X_NUC_5.L_CORE X_NUC_39.L_CORE 0.006619
K_261 X_NUC_5.L_CORE X_NUC_40.L_CORE 0.006675
K_262 X_NUC_5.L_CORE X_NUC_41.L_CORE 0.004261
K_263 X_NUC_5.L_CORE X_NUC_42.L_CORE 0.004325
K_264 X_NUC_5.L_CORE X_NUC_43.L_CORE 0.004245
K_265 X_NUC_5.L_CORE X_NUC_44.L_CORE 0.004257
K_266 X_NUC_5.L_CORE X_NUC_45.L_CORE 0.005126
K_267 X_NUC_5.L_CORE X_NUC_46.L_CORE 0.005145
K_268 X_NUC_5.L_CORE X_NUC_47.L_CORE 0.005084
K_269 X_NUC_5.L_CORE X_NUC_48.L_CORE 0.005031
K_270 X_NUC_5.L_CORE X_NUC_49.L_CORE 0.004775
K_271 X_NUC_5.L_CORE X_NUC_50.L_CORE 0.004803
K_272 X_NUC_5.L_CORE X_NUC_51.L_CORE 0.004702
K_273 X_NUC_5.L_CORE X_NUC_52.L_CORE 0.004737
K_274 X_NUC_5.L_CORE X_NUC_53.L_CORE 0.004216
K_275 X_NUC_5.L_CORE X_NUC_54.L_CORE 0.004256
K_276 X_NUC_5.L_CORE X_NUC_55.L_CORE 0.004188
K_277 X_NUC_5.L_CORE X_NUC_56.L_CORE 0.004178
K_278 X_NUC_5.L_CORE X_NUC_57.L_CORE 0.005771
K_279 X_NUC_5.L_CORE X_NUC_58.L_CORE 0.008010
K_280 X_NUC_5.L_CORE X_NUC_59.L_CORE 0.003807
K_281 X_NUC_6.L_CORE X_NUC_7.L_CORE 0.207973
K_282 X_NUC_6.L_CORE X_NUC_8.L_CORE 0.207973
K_283 X_NUC_6.L_CORE X_NUC_9.L_CORE 0.006195
K_284 X_NUC_6.L_CORE X_NUC_10.L_CORE 0.006371
K_285 X_NUC_6.L_CORE X_NUC_11.L_CORE 0.006232
K_286 X_NUC_6.L_CORE X_NUC_12.L_CORE 0.006299
K_287 X_NUC_6.L_CORE X_NUC_13.L_CORE 0.007679
K_288 X_NUC_6.L_CORE X_NUC_14.L_CORE 0.007821
K_289 X_NUC_6.L_CORE X_NUC_15.L_CORE 0.007812
K_290 X_NUC_6.L_CORE X_NUC_16.L_CORE 0.007578
K_291 X_NUC_6.L_CORE X_NUC_17.L_CORE 0.009599
K_292 X_NUC_6.L_CORE X_NUC_18.L_CORE 0.009653
K_293 X_NUC_6.L_CORE X_NUC_19.L_CORE 0.009291
K_294 X_NUC_6.L_CORE X_NUC_20.L_CORE 0.009655
K_295 X_NUC_6.L_CORE X_NUC_21.L_CORE 0.004796
K_296 X_NUC_6.L_CORE X_NUC_22.L_CORE 0.004901
K_297 X_NUC_6.L_CORE X_NUC_23.L_CORE 0.004828
K_298 X_NUC_6.L_CORE X_NUC_24.L_CORE 0.004813
K_299 X_NUC_6.L_CORE X_NUC_25.L_CORE 0.009096
K_300 X_NUC_6.L_CORE X_NUC_26.L_CORE 0.008998
K_301 X_NUC_6.L_CORE X_NUC_27.L_CORE 0.008940
K_302 X_NUC_6.L_CORE X_NUC_28.L_CORE 0.008730
K_303 X_NUC_6.L_CORE X_NUC_29.L_CORE 0.005229
K_304 X_NUC_6.L_CORE X_NUC_30.L_CORE 0.005308
K_305 X_NUC_6.L_CORE X_NUC_31.L_CORE 0.005179
K_306 X_NUC_6.L_CORE X_NUC_32.L_CORE 0.005255
K_307 X_NUC_6.L_CORE X_NUC_33.L_CORE 0.004798
K_308 X_NUC_6.L_CORE X_NUC_34.L_CORE 0.004867
K_309 X_NUC_6.L_CORE X_NUC_35.L_CORE 0.004815
K_310 X_NUC_6.L_CORE X_NUC_36.L_CORE 0.004757
K_311 X_NUC_6.L_CORE X_NUC_37.L_CORE 0.006857
K_312 X_NUC_6.L_CORE X_NUC_38.L_CORE 0.006815
K_313 X_NUC_6.L_CORE X_NUC_39.L_CORE 0.006660
K_314 X_NUC_6.L_CORE X_NUC_40.L_CORE 0.006718
K_315 X_NUC_6.L_CORE X_NUC_41.L_CORE 0.004197
K_316 X_NUC_6.L_CORE X_NUC_42.L_CORE 0.004261
K_317 X_NUC_6.L_CORE X_NUC_43.L_CORE 0.004183
K_318 X_NUC_6.L_CORE X_NUC_44.L_CORE 0.004194
K_319 X_NUC_6.L_CORE X_NUC_45.L_CORE 0.005104
K_320 X_NUC_6.L_CORE X_NUC_46.L_CORE 0.005126
K_321 X_NUC_6.L_CORE X_NUC_47.L_CORE 0.005064
K_322 X_NUC_6.L_CORE X_NUC_48.L_CORE 0.005012
K_323 X_NUC_6.L_CORE X_NUC_49.L_CORE 0.004745
K_324 X_NUC_6.L_CORE X_NUC_50.L_CORE 0.004775
K_325 X_NUC_6.L_CORE X_NUC_51.L_CORE 0.004675
K_326 X_NUC_6.L_CORE X_NUC_52.L_CORE 0.004709
K_327 X_NUC_6.L_CORE X_NUC_53.L_CORE 0.004175
K_328 X_NUC_6.L_CORE X_NUC_54.L_CORE 0.004216
K_329 X_NUC_6.L_CORE X_NUC_55.L_CORE 0.004149
K_330 X_NUC_6.L_CORE X_NUC_56.L_CORE 0.004139
K_331 X_NUC_6.L_CORE X_NUC_57.L_CORE 0.005633
K_332 X_NUC_6.L_CORE X_NUC_58.L_CORE 0.008207
K_333 X_NUC_6.L_CORE X_NUC_59.L_CORE 0.003765
K_334 X_NUC_7.L_CORE X_NUC_8.L_CORE 0.207973
K_335 X_NUC_7.L_CORE X_NUC_9.L_CORE 0.006328
K_336 X_NUC_7.L_CORE X_NUC_10.L_CORE 0.006514
K_337 X_NUC_7.L_CORE X_NUC_11.L_CORE 0.006371
K_338 X_NUC_7.L_CORE X_NUC_12.L_CORE 0.006439
K_339 X_NUC_7.L_CORE X_NUC_13.L_CORE 0.007682
K_340 X_NUC_7.L_CORE X_NUC_14.L_CORE 0.007819
K_341 X_NUC_7.L_CORE X_NUC_15.L_CORE 0.007821
K_342 X_NUC_7.L_CORE X_NUC_16.L_CORE 0.007581
K_343 X_NUC_7.L_CORE X_NUC_17.L_CORE 0.009989
K_344 X_NUC_7.L_CORE X_NUC_18.L_CORE 0.010037
K_345 X_NUC_7.L_CORE X_NUC_19.L_CORE 0.009653
K_346 X_NUC_7.L_CORE X_NUC_20.L_CORE 0.010051
K_347 X_NUC_7.L_CORE X_NUC_21.L_CORE 0.004866
K_348 X_NUC_7.L_CORE X_NUC_22.L_CORE 0.004975
K_349 X_NUC_7.L_CORE X_NUC_23.L_CORE 0.004901
K_350 X_NUC_7.L_CORE X_NUC_24.L_CORE 0.004884
K_351 X_NUC_7.L_CORE X_NUC_25.L_CORE 0.009148
K_352 X_NUC_7.L_CORE X_NUC_26.L_CORE 0.009041
K_353 X_NUC_7.L_CORE X_NUC_27.L_CORE 0.008998
K_354 X_NUC_7.L_CORE X_NUC_28.L_CORE 0.008776
K_355 X_NUC_7.L_CORE X_NUC_29.L_CORE 0.005360
K_356 X_NUC_7.L_CORE X_NUC_30.L_CORE 0.005444
K_357 X_NUC_7.L_CORE X_NUC_31.L_CORE 0.005308
K_358 X_NUC_7.L_CORE X_NUC_32.L_CORE 0.005389
K_359 X_NUC_7.L_CORE X_NUC_33.L_CORE 0.004848
K_360 X_NUC_7.L_CORE X_NUC_34.L_CORE 0.004918
K_361 X_NUC_7.L_CORE X_NUC_35.L_CORE 0.004867
K_362 X_NUC_7.L_CORE X_NUC_36.L_CORE 0.004806
K_363 X_NUC_7.L_CORE X_NUC_37.L_CORE 0.007022
K_364 X_NUC_7.L_CORE X_NUC_38.L_CORE 0.006973
K_365 X_NUC_7.L_CORE X_NUC_39.L_CORE 0.006815
K_366 X_NUC_7.L_CORE X_NUC_40.L_CORE 0.006873
K_367 X_NUC_7.L_CORE X_NUC_41.L_CORE 0.004274
K_368 X_NUC_7.L_CORE X_NUC_42.L_CORE 0.004341
K_369 X_NUC_7.L_CORE X_NUC_43.L_CORE 0.004261
K_370 X_NUC_7.L_CORE X_NUC_44.L_CORE 0.004272
K_371 X_NUC_7.L_CORE X_NUC_45.L_CORE 0.005166
K_372 X_NUC_7.L_CORE X_NUC_46.L_CORE 0.005187
K_373 X_NUC_7.L_CORE X_NUC_47.L_CORE 0.005126
K_374 X_NUC_7.L_CORE X_NUC_48.L_CORE 0.005070
K_375 X_NUC_7.L_CORE X_NUC_49.L_CORE 0.004850
K_376 X_NUC_7.L_CORE X_NUC_50.L_CORE 0.004880
K_377 X_NUC_7.L_CORE X_NUC_51.L_CORE 0.004775
K_378 X_NUC_7.L_CORE X_NUC_52.L_CORE 0.004811
K_379 X_NUC_7.L_CORE X_NUC_53.L_CORE 0.004243
K_380 X_NUC_7.L_CORE X_NUC_54.L_CORE 0.004285
K_381 X_NUC_7.L_CORE X_NUC_55.L_CORE 0.004216
K_382 X_NUC_7.L_CORE X_NUC_56.L_CORE 0.004205
K_383 X_NUC_7.L_CORE X_NUC_57.L_CORE 0.005660
K_384 X_NUC_7.L_CORE X_NUC_58.L_CORE 0.008289
K_385 X_NUC_7.L_CORE X_NUC_59.L_CORE 0.003832
K_386 X_NUC_8.L_CORE X_NUC_9.L_CORE 0.006261
K_387 X_NUC_8.L_CORE X_NUC_10.L_CORE 0.006440
K_388 X_NUC_8.L_CORE X_NUC_11.L_CORE 0.006300
K_389 X_NUC_8.L_CORE X_NUC_12.L_CORE 0.006371
K_390 X_NUC_8.L_CORE X_NUC_13.L_CORE 0.007927
K_391 X_NUC_8.L_CORE X_NUC_14.L_CORE 0.008077
K_392 X_NUC_8.L_CORE X_NUC_15.L_CORE 0.008073
K_393 X_NUC_8.L_CORE X_NUC_16.L_CORE 0.007821
K_394 X_NUC_8.L_CORE X_NUC_17.L_CORE 0.009587
K_395 X_NUC_8.L_CORE X_NUC_18.L_CORE 0.009629
K_396 X_NUC_8.L_CORE X_NUC_19.L_CORE 0.009279
K_397 X_NUC_8.L_CORE X_NUC_20.L_CORE 0.009653
K_398 X_NUC_8.L_CORE X_NUC_21.L_CORE 0.004882
K_399 X_NUC_8.L_CORE X_NUC_22.L_CORE 0.004992
K_400 X_NUC_8.L_CORE X_NUC_23.L_CORE 0.004916
K_401 X_NUC_8.L_CORE X_NUC_24.L_CORE 0.004901
K_402 X_NUC_8.L_CORE X_NUC_25.L_CORE 0.009391
K_403 X_NUC_8.L_CORE X_NUC_26.L_CORE 0.009275
K_404 X_NUC_8.L_CORE X_NUC_27.L_CORE 0.009220
K_405 X_NUC_8.L_CORE X_NUC_28.L_CORE 0.008998
K_406 X_NUC_8.L_CORE X_NUC_29.L_CORE 0.005279
K_407 X_NUC_8.L_CORE X_NUC_30.L_CORE 0.005360
K_408 X_NUC_8.L_CORE X_NUC_31.L_CORE 0.005228
K_409 X_NUC_8.L_CORE X_NUC_32.L_CORE 0.005308
K_410 X_NUC_8.L_CORE X_NUC_33.L_CORE 0.004910
K_411 X_NUC_8.L_CORE X_NUC_34.L_CORE 0.004982
K_412 X_NUC_8.L_CORE X_NUC_35.L_CORE 0.004928
K_413 X_NUC_8.L_CORE X_NUC_36.L_CORE 0.004867
K_414 X_NUC_8.L_CORE X_NUC_37.L_CORE 0.006956
K_415 X_NUC_8.L_CORE X_NUC_38.L_CORE 0.006909
K_416 X_NUC_8.L_CORE X_NUC_39.L_CORE 0.006752
K_417 X_NUC_8.L_CORE X_NUC_40.L_CORE 0.006815
K_418 X_NUC_8.L_CORE X_NUC_41.L_CORE 0.004262
K_419 X_NUC_8.L_CORE X_NUC_42.L_CORE 0.004328
K_420 X_NUC_8.L_CORE X_NUC_43.L_CORE 0.004248
K_421 X_NUC_8.L_CORE X_NUC_44.L_CORE 0.004261
K_422 X_NUC_8.L_CORE X_NUC_45.L_CORE 0.005224
K_423 X_NUC_8.L_CORE X_NUC_46.L_CORE 0.005246
K_424 X_NUC_8.L_CORE X_NUC_47.L_CORE 0.005181
K_425 X_NUC_8.L_CORE X_NUC_48.L_CORE 0.005126
K_426 X_NUC_8.L_CORE X_NUC_49.L_CORE 0.004812
K_427 X_NUC_8.L_CORE X_NUC_50.L_CORE 0.004842
K_428 X_NUC_8.L_CORE X_NUC_51.L_CORE 0.004739
K_429 X_NUC_8.L_CORE X_NUC_52.L_CORE 0.004775
K_430 X_NUC_8.L_CORE X_NUC_53.L_CORE 0.004253
K_431 X_NUC_8.L_CORE X_NUC_54.L_CORE 0.004295
K_432 X_NUC_8.L_CORE X_NUC_55.L_CORE 0.004225
K_433 X_NUC_8.L_CORE X_NUC_56.L_CORE 0.004216
K_434 X_NUC_8.L_CORE X_NUC_57.L_CORE 0.005734
K_435 X_NUC_8.L_CORE X_NUC_58.L_CORE 0.008280
K_436 X_NUC_8.L_CORE X_NUC_59.L_CORE 0.003813
K_437 X_NUC_9.L_CORE X_NUC_10.L_CORE 0.207973
K_438 X_NUC_9.L_CORE X_NUC_11.L_CORE 0.207973
K_439 X_NUC_9.L_CORE X_NUC_12.L_CORE 0.207973
K_440 X_NUC_9.L_CORE X_NUC_13.L_CORE 0.005418
K_441 X_NUC_9.L_CORE X_NUC_14.L_CORE 0.005352
K_442 X_NUC_9.L_CORE X_NUC_15.L_CORE 0.005437
K_443 X_NUC_9.L_CORE X_NUC_16.L_CORE 0.005315
K_444 X_NUC_9.L_CORE X_NUC_17.L_CORE 0.006958
K_445 X_NUC_9.L_CORE X_NUC_18.L_CORE 0.006745
K_446 X_NUC_9.L_CORE X_NUC_19.L_CORE 0.006785
K_447 X_NUC_9.L_CORE X_NUC_20.L_CORE 0.006835
K_448 X_NUC_9.L_CORE X_NUC_21.L_CORE 0.009176
K_449 X_NUC_9.L_CORE X_NUC_22.L_CORE 0.009336
K_450 X_NUC_9.L_CORE X_NUC_23.L_CORE 0.009273
K_451 X_NUC_9.L_CORE X_NUC_24.L_CORE 0.008963
K_452 X_NUC_9.L_CORE X_NUC_25.L_CORE 0.004482
K_453 X_NUC_9.L_CORE X_NUC_26.L_CORE 0.004407
K_454 X_NUC_9.L_CORE X_NUC_27.L_CORE 0.004448
K_455 X_NUC_9.L_CORE X_NUC_28.L_CORE 0.004398
K_456 X_NUC_9.L_CORE X_NUC_29.L_CORE 0.009242
K_457 X_NUC_9.L_CORE X_NUC_30.L_CORE 0.009105
K_458 X_NUC_9.L_CORE X_NUC_31.L_CORE 0.008856
K_459 X_NUC_9.L_CORE X_NUC_32.L_CORE 0.009047
K_460 X_NUC_9.L_CORE X_NUC_33.L_CORE 0.005072
K_461 X_NUC_9.L_CORE X_NUC_34.L_CORE 0.005058
K_462 X_NUC_9.L_CORE X_NUC_35.L_CORE 0.005071
K_463 X_NUC_9.L_CORE X_NUC_36.L_CORE 0.004969
K_464 X_NUC_9.L_CORE X_NUC_37.L_CORE 0.004688
K_465 X_NUC_9.L_CORE X_NUC_38.L_CORE 0.004603
K_466 X_NUC_9.L_CORE X_NUC_39.L_CORE 0.004607
K_467 X_NUC_9.L_CORE X_NUC_40.L_CORE 0.004600
K_468 X_NUC_9.L_CORE X_NUC_41.L_CORE 0.007006
K_469 X_NUC_9.L_CORE X_NUC_42.L_CORE 0.007047
K_470 X_NUC_9.L_CORE X_NUC_43.L_CORE 0.006886
K_471 X_NUC_9.L_CORE X_NUC_44.L_CORE 0.006849
K_472 X_NUC_9.L_CORE X_NUC_45.L_CORE 0.004186
K_473 X_NUC_9.L_CORE X_NUC_46.L_CORE 0.004146
K_474 X_NUC_9.L_CORE X_NUC_47.L_CORE 0.004152
K_475 X_NUC_9.L_CORE X_NUC_48.L_CORE 0.004104
K_476 X_NUC_9.L_CORE X_NUC_49.L_CORE 0.005126
K_477 X_NUC_9.L_CORE X_NUC_50.L_CORE 0.005067
K_478 X_NUC_9.L_CORE X_NUC_51.L_CORE 0.005016
K_479 X_NUC_9.L_CORE X_NUC_52.L_CORE 0.005024
K_480 X_NUC_9.L_CORE X_NUC_53.L_CORE 0.004761
K_481 X_NUC_9.L_CORE X_NUC_54.L_CORE 0.004743
K_482 X_NUC_9.L_CORE X_NUC_55.L_CORE 0.004704
K_483 X_NUC_9.L_CORE X_NUC_56.L_CORE 0.004663
K_484 X_NUC_9.L_CORE X_NUC_57.L_CORE 0.007090
K_485 X_NUC_9.L_CORE X_NUC_58.L_CORE 0.004100
K_486 X_NUC_9.L_CORE X_NUC_59.L_CORE 0.005518
K_487 X_NUC_10.L_CORE X_NUC_11.L_CORE 0.207973
K_488 X_NUC_10.L_CORE X_NUC_12.L_CORE 0.207973
K_489 X_NUC_10.L_CORE X_NUC_13.L_CORE 0.005482
K_490 X_NUC_10.L_CORE X_NUC_14.L_CORE 0.005418
K_491 X_NUC_10.L_CORE X_NUC_15.L_CORE 0.005503
K_492 X_NUC_10.L_CORE X_NUC_16.L_CORE 0.005377
K_493 X_NUC_10.L_CORE X_NUC_17.L_CORE 0.007184
K_494 X_NUC_10.L_CORE X_NUC_18.L_CORE 0.006958
K_495 X_NUC_10.L_CORE X_NUC_19.L_CORE 0.006998
K_496 X_NUC_10.L_CORE X_NUC_20.L_CORE 0.007053
K_497 X_NUC_10.L_CORE X_NUC_21.L_CORE 0.009008
K_498 X_NUC_10.L_CORE X_NUC_22.L_CORE 0.009176
K_499 X_NUC_10.L_CORE X_NUC_23.L_CORE 0.009108
K_500 X_NUC_10.L_CORE X_NUC_24.L_CORE 0.008814
K_501 X_NUC_10.L_CORE X_NUC_25.L_CORE 0.004558
K_502 X_NUC_10.L_CORE X_NUC_26.L_CORE 0.004482
K_503 X_NUC_10.L_CORE X_NUC_27.L_CORE 0.004524
K_504 X_NUC_10.L_CORE X_NUC_28.L_CORE 0.004471
K_505 X_NUC_10.L_CORE X_NUC_29.L_CORE 0.009366
K_506 X_NUC_10.L_CORE X_NUC_30.L_CORE 0.009242
K_507 X_NUC_10.L_CORE X_NUC_31.L_CORE 0.008974
K_508 X_NUC_10.L_CORE X_NUC_32.L_CORE 0.009173
K_509 X_NUC_10.L_CORE X_NUC_33.L_CORE 0.005084
K_510 X_NUC_10.L_CORE X_NUC_34.L_CORE 0.005072
K_511 X_NUC_10.L_CORE X_NUC_35.L_CORE 0.005084
K_512 X_NUC_10.L_CORE X_NUC_36.L_CORE 0.004982
K_513 X_NUC_10.L_CORE X_NUC_37.L_CORE 0.004776
K_514 X_NUC_10.L_CORE X_NUC_38.L_CORE 0.004688
K_515 X_NUC_10.L_CORE X_NUC_39.L_CORE 0.004692
K_516 X_NUC_10.L_CORE X_NUC_40.L_CORE 0.004684
K_517 X_NUC_10.L_CORE X_NUC_41.L_CORE 0.006957
K_518 X_NUC_10.L_CORE X_NUC_42.L_CORE 0.007006
K_519 X_NUC_10.L_CORE X_NUC_43.L_CORE 0.006843
K_520 X_NUC_10.L_CORE X_NUC_44.L_CORE 0.006807
K_521 X_NUC_10.L_CORE X_NUC_45.L_CORE 0.004226
K_522 X_NUC_10.L_CORE X_NUC_46.L_CORE 0.004186
K_523 X_NUC_10.L_CORE X_NUC_47.L_CORE 0.004192
K_524 X_NUC_10.L_CORE X_NUC_48.L_CORE 0.004143
K_525 X_NUC_10.L_CORE X_NUC_49.L_CORE 0.005184
K_526 X_NUC_10.L_CORE X_NUC_50.L_CORE 0.005126
K_527 X_NUC_10.L_CORE X_NUC_51.L_CORE 0.005071
K_528 X_NUC_10.L_CORE X_NUC_52.L_CORE 0.005079
K_529 X_NUC_10.L_CORE X_NUC_53.L_CORE 0.004777
K_530 X_NUC_10.L_CORE X_NUC_54.L_CORE 0.004761
K_531 X_NUC_10.L_CORE X_NUC_55.L_CORE 0.004721
K_532 X_NUC_10.L_CORE X_NUC_56.L_CORE 0.004679
K_533 X_NUC_10.L_CORE X_NUC_57.L_CORE 0.007075
K_534 X_NUC_10.L_CORE X_NUC_58.L_CORE 0.004175
K_535 X_NUC_10.L_CORE X_NUC_59.L_CORE 0.005506
K_536 X_NUC_11.L_CORE X_NUC_12.L_CORE 0.207973
K_537 X_NUC_11.L_CORE X_NUC_13.L_CORE 0.005395
K_538 X_NUC_11.L_CORE X_NUC_14.L_CORE 0.005332
K_539 X_NUC_11.L_CORE X_NUC_15.L_CORE 0.005418
K_540 X_NUC_11.L_CORE X_NUC_16.L_CORE 0.005295
K_541 X_NUC_11.L_CORE X_NUC_17.L_CORE 0.007137
K_542 X_NUC_11.L_CORE X_NUC_18.L_CORE 0.006911
K_543 X_NUC_11.L_CORE X_NUC_19.L_CORE 0.006958
K_544 X_NUC_11.L_CORE X_NUC_20.L_CORE 0.007008
K_545 X_NUC_11.L_CORE X_NUC_21.L_CORE 0.009065
K_546 X_NUC_11.L_CORE X_NUC_22.L_CORE 0.009228
K_547 X_NUC_11.L_CORE X_NUC_23.L_CORE 0.009176
K_548 X_NUC_11.L_CORE X_NUC_24.L_CORE 0.008868
K_549 X_NUC_11.L_CORE X_NUC_25.L_CORE 0.004514
K_550 X_NUC_11.L_CORE X_NUC_26.L_CORE 0.004438
K_551 X_NUC_11.L_CORE X_NUC_27.L_CORE 0.004482
K_552 X_NUC_11.L_CORE X_NUC_28.L_CORE 0.004430
K_553 X_NUC_11.L_CORE X_NUC_29.L_CORE 0.009662
K_554 X_NUC_11.L_CORE X_NUC_30.L_CORE 0.009516
K_555 X_NUC_11.L_CORE X_NUC_31.L_CORE 0.009242
K_556 X_NUC_11.L_CORE X_NUC_32.L_CORE 0.009450
K_557 X_NUC_11.L_CORE X_NUC_33.L_CORE 0.005071
K_558 X_NUC_11.L_CORE X_NUC_34.L_CORE 0.005058
K_559 X_NUC_11.L_CORE X_NUC_35.L_CORE 0.005072
K_560 X_NUC_11.L_CORE X_NUC_36.L_CORE 0.004970
K_561 X_NUC_11.L_CORE X_NUC_37.L_CORE 0.004771
K_562 X_NUC_11.L_CORE X_NUC_38.L_CORE 0.004682
K_563 X_NUC_11.L_CORE X_NUC_39.L_CORE 0.004688
K_564 X_NUC_11.L_CORE X_NUC_40.L_CORE 0.004679
K_565 X_NUC_11.L_CORE X_NUC_41.L_CORE 0.007124
K_566 X_NUC_11.L_CORE X_NUC_42.L_CORE 0.007172
K_567 X_NUC_11.L_CORE X_NUC_43.L_CORE 0.007006
K_568 X_NUC_11.L_CORE X_NUC_44.L_CORE 0.006963
K_569 X_NUC_11.L_CORE X_NUC_45.L_CORE 0.004220
K_570 X_NUC_11.L_CORE X_NUC_46.L_CORE 0.004179
K_571 X_NUC_11.L_CORE X_NUC_47.L_CORE 0.004186
K_572 X_NUC_11.L_CORE X_NUC_48.L_CORE 0.004136
K_573 X_NUC_11.L_CORE X_NUC_49.L_CORE 0.005241
K_574 X_NUC_11.L_CORE X_NUC_50.L_CORE 0.005179
K_575 X_NUC_11.L_CORE X_NUC_51.L_CORE 0.005126
K_576 X_NUC_11.L_CORE X_NUC_52.L_CORE 0.005133
K_577 X_NUC_11.L_CORE X_NUC_53.L_CORE 0.004817
K_578 X_NUC_11.L_CORE X_NUC_54.L_CORE 0.004800
K_579 X_NUC_11.L_CORE X_NUC_55.L_CORE 0.004761
K_580 X_NUC_11.L_CORE X_NUC_56.L_CORE 0.004717
K_581 X_NUC_11.L_CORE X_NUC_57.L_CORE 0.006940
K_582 X_NUC_11.L_CORE X_NUC_58.L_CORE 0.004147
K_583 X_NUC_11.L_CORE X_NUC_59.L_CORE 0.005622
K_584 X_NUC_12.L_CORE X_NUC_13.L_CORE 0.005523
K_585 X_NUC_12.L_CORE X_NUC_14.L_CORE 0.005455
K_586 X_NUC_12.L_CORE X_NUC_15.L_CORE 0.005545
K_587 X_NUC_12.L_CORE X_NUC_16.L_CORE 0.005418
K_588 X_NUC_12.L_CORE X_NUC_17.L_CORE 0.007080
K_589 X_NUC_12.L_CORE X_NUC_18.L_CORE 0.006859
K_590 X_NUC_12.L_CORE X_NUC_19.L_CORE 0.006902
K_591 X_NUC_12.L_CORE X_NUC_20.L_CORE 0.006958
K_592 X_NUC_12.L_CORE X_NUC_21.L_CORE 0.009386
K_593 X_NUC_12.L_CORE X_NUC_22.L_CORE 0.009567
K_594 X_NUC_12.L_CORE X_NUC_23.L_CORE 0.009500
K_595 X_NUC_12.L_CORE X_NUC_24.L_CORE 0.009176
K_596 X_NUC_12.L_CORE X_NUC_25.L_CORE 0.004568
K_597 X_NUC_12.L_CORE X_NUC_26.L_CORE 0.004490
K_598 X_NUC_12.L_CORE X_NUC_27.L_CORE 0.004533
K_599 X_NUC_12.L_CORE X_NUC_28.L_CORE 0.004482
K_600 X_NUC_12.L_CORE X_NUC_29.L_CORE 0.009430