* Applied Vacuum Engineering (AVE) - SPICE Netlist
* Element: Niobium-93 (Z=41, A=93)
* Auto-generated topological mutual impedance array
* Nodes: 93



* -----------------------------------------------------------------
* NUCLEON (Baseline 6^3_2 Topological Defect)
* -----------------------------------------------------------------
.SUBCKT NUCLEON IN OUT
L_CORE IN OUT 1uH
C_CORE IN OUT 1pF
.ENDS NUCLEON



* -----------------------------------------------------------------
* MACROSCOPIC TOPOLOGY (Nucleon Array)
* -----------------------------------------------------------------
V_STIM NODE_1 0 AC 1 PULSE(0 100k 10n 1n 1n 50n 100n)

X_NUC_1 NODE_1 0 NUCLEON
X_NUC_2 NODE_2 0 NUCLEON
X_NUC_3 NODE_3 0 NUCLEON
X_NUC_4 NODE_4 0 NUCLEON
X_NUC_5 NODE_5 0 NUCLEON
X_NUC_6 NODE_6 0 NUCLEON
X_NUC_7 NODE_7 0 NUCLEON
X_NUC_8 NODE_8 0 NUCLEON
X_NUC_9 NODE_9 0 NUCLEON
X_NUC_10 NODE_10 0 NUCLEON
X_NUC_11 NODE_11 0 NUCLEON
X_NUC_12 NODE_12 0 NUCLEON
X_NUC_13 NODE_13 0 NUCLEON
X_NUC_14 NODE_14 0 NUCLEON
X_NUC_15 NODE_15 0 NUCLEON
X_NUC_16 NODE_16 0 NUCLEON
X_NUC_17 NODE_17 0 NUCLEON
X_NUC_18 NODE_18 0 NUCLEON
X_NUC_19 NODE_19 0 NUCLEON
X_NUC_20 NODE_20 0 NUCLEON
X_NUC_21 NODE_21 0 NUCLEON
X_NUC_22 NODE_22 0 NUCLEON
X_NUC_23 NODE_23 0 NUCLEON
X_NUC_24 NODE_24 0 NUCLEON
X_NUC_25 NODE_25 0 NUCLEON
X_NUC_26 NODE_26 0 NUCLEON
X_NUC_27 NODE_27 0 NUCLEON
X_NUC_28 NODE_28 0 NUCLEON
X_NUC_29 NODE_29 0 NUCLEON
X_NUC_30 NODE_30 0 NUCLEON
X_NUC_31 NODE_31 0 NUCLEON
X_NUC_32 NODE_32 0 NUCLEON
X_NUC_33 NODE_33 0 NUCLEON
X_NUC_34 NODE_34 0 NUCLEON
X_NUC_35 NODE_35 0 NUCLEON
X_NUC_36 NODE_36 0 NUCLEON
X_NUC_37 NODE_37 0 NUCLEON
X_NUC_38 NODE_38 0 NUCLEON
X_NUC_39 NODE_39 0 NUCLEON
X_NUC_40 NODE_40 0 NUCLEON
X_NUC_41 NODE_41 0 NUCLEON
X_NUC_42 NODE_42 0 NUCLEON
X_NUC_43 NODE_43 0 NUCLEON
X_NUC_44 NODE_44 0 NUCLEON
X_NUC_45 NODE_45 0 NUCLEON
X_NUC_46 NODE_46 0 NUCLEON
X_NUC_47 NODE_47 0 NUCLEON
X_NUC_48 NODE_48 0 NUCLEON
X_NUC_49 NODE_49 0 NUCLEON
X_NUC_50 NODE_50 0 NUCLEON
X_NUC_51 NODE_51 0 NUCLEON
X_NUC_52 NODE_52 0 NUCLEON
X_NUC_53 NODE_53 0 NUCLEON
X_NUC_54 NODE_54 0 NUCLEON
X_NUC_55 NODE_55 0 NUCLEON
X_NUC_56 NODE_56 0 NUCLEON
X_NUC_57 NODE_57 0 NUCLEON
X_NUC_58 NODE_58 0 NUCLEON
X_NUC_59 NODE_59 0 NUCLEON
X_NUC_60 NODE_60 0 NUCLEON
X_NUC_61 NODE_61 0 NUCLEON
X_NUC_62 NODE_62 0 NUCLEON
X_NUC_63 NODE_63 0 NUCLEON
X_NUC_64 NODE_64 0 NUCLEON
X_NUC_65 NODE_65 0 NUCLEON
X_NUC_66 NODE_66 0 NUCLEON
X_NUC_67 NODE_67 0 NUCLEON
X_NUC_68 NODE_68 0 NUCLEON
X_NUC_69 NODE_69 0 NUCLEON
X_NUC_70 NODE_70 0 NUCLEON
X_NUC_71 NODE_71 0 NUCLEON
X_NUC_72 NODE_72 0 NUCLEON
X_NUC_73 NODE_73 0 NUCLEON
X_NUC_74 NODE_74 0 NUCLEON
X_NUC_75 NODE_75 0 NUCLEON
X_NUC_76 NODE_76 0 NUCLEON
X_NUC_77 NODE_77 0 NUCLEON
X_NUC_78 NODE_78 0 NUCLEON
X_NUC_79 NODE_79 0 NUCLEON
X_NUC_80 NODE_80 0 NUCLEON
X_NUC_81 NODE_81 0 NUCLEON
X_NUC_82 NODE_82 0 NUCLEON
X_NUC_83 NODE_83 0 NUCLEON
X_NUC_84 NODE_84 0 NUCLEON
X_NUC_85 NODE_85 0 NUCLEON
X_NUC_86 NODE_86 0 NUCLEON
X_NUC_87 NODE_87 0 NUCLEON
X_NUC_88 NODE_88 0 NUCLEON
X_NUC_89 NODE_89 0 NUCLEON
X_NUC_90 NODE_90 0 NUCLEON
X_NUC_91 NODE_91 0 NUCLEON
X_NUC_92 NODE_92 0 NUCLEON
X_NUC_93 NODE_93 0 NUCLEON


* -----------------------------------------------------------------
* SPATIAL MUTUAL INDUCTANCE (K-FACTORS)
* -----------------------------------------------------------------
K_1 X_NUC_1.L_CORE X_NUC_2.L_CORE 0.207973
K_2 X_NUC_1.L_CORE X_NUC_3.L_CORE 0.207973
K_3 X_NUC_1.L_CORE X_NUC_4.L_CORE 0.207973
K_4 X_NUC_1.L_CORE X_NUC_5.L_CORE 0.007185
K_5 X_NUC_1.L_CORE X_NUC_6.L_CORE 0.006958
K_6 X_NUC_1.L_CORE X_NUC_7.L_CORE 0.007010
K_7 X_NUC_1.L_CORE X_NUC_8.L_CORE 0.007082
K_8 X_NUC_1.L_CORE X_NUC_9.L_CORE 0.007753
K_9 X_NUC_1.L_CORE X_NUC_10.L_CORE 0.007863
K_10 X_NUC_1.L_CORE X_NUC_11.L_CORE 0.007625
K_11 X_NUC_1.L_CORE X_NUC_12.L_CORE 0.007879
K_12 X_NUC_1.L_CORE X_NUC_13.L_CORE 0.008248
K_13 X_NUC_1.L_CORE X_NUC_14.L_CORE 0.008094
K_14 X_NUC_1.L_CORE X_NUC_15.L_CORE 0.008191
K_15 X_NUC_1.L_CORE X_NUC_16.L_CORE 0.007955
K_16 X_NUC_1.L_CORE X_NUC_17.L_CORE 0.004697
K_17 X_NUC_1.L_CORE X_NUC_18.L_CORE 0.004635
K_18 X_NUC_1.L_CORE X_NUC_19.L_CORE 0.004603
K_19 X_NUC_1.L_CORE X_NUC_20.L_CORE 0.004680
K_20 X_NUC_1.L_CORE X_NUC_21.L_CORE 0.006931
K_21 X_NUC_1.L_CORE X_NUC_22.L_CORE 0.007117
K_22 X_NUC_1.L_CORE X_NUC_23.L_CORE 0.006915
K_23 X_NUC_1.L_CORE X_NUC_24.L_CORE 0.006923
K_24 X_NUC_1.L_CORE X_NUC_25.L_CORE 0.004668
K_25 X_NUC_1.L_CORE X_NUC_26.L_CORE 0.004580
K_26 X_NUC_1.L_CORE X_NUC_27.L_CORE 0.004598
K_27 X_NUC_1.L_CORE X_NUC_28.L_CORE 0.004578
K_28 X_NUC_1.L_CORE X_NUC_29.L_CORE 0.004238
K_29 X_NUC_1.L_CORE X_NUC_30.L_CORE 0.004242
K_30 X_NUC_1.L_CORE X_NUC_31.L_CORE 0.004172
K_31 X_NUC_1.L_CORE X_NUC_32.L_CORE 0.004244
K_32 X_NUC_1.L_CORE X_NUC_33.L_CORE 0.005342
K_33 X_NUC_1.L_CORE X_NUC_34.L_CORE 0.005366
K_34 X_NUC_1.L_CORE X_NUC_35.L_CORE 0.005324
K_35 X_NUC_1.L_CORE X_NUC_36.L_CORE 0.005240
K_36 X_NUC_1.L_CORE X_NUC_37.L_CORE 0.003613
K_37 X_NUC_1.L_CORE X_NUC_38.L_CORE 0.003568
K_38 X_NUC_1.L_CORE X_NUC_39.L_CORE 0.003554
K_39 X_NUC_1.L_CORE X_NUC_40.L_CORE 0.003577
K_40 X_NUC_1.L_CORE X_NUC_41.L_CORE 0.004207
K_41 X_NUC_1.L_CORE X_NUC_42.L_CORE 0.004252
K_42 X_NUC_1.L_CORE X_NUC_43.L_CORE 0.004167
K_43 X_NUC_1.L_CORE X_NUC_44.L_CORE 0.004202
K_44 X_NUC_1.L_CORE X_NUC_45.L_CORE 0.003927
K_45 X_NUC_1.L_CORE X_NUC_46.L_CORE 0.003892
K_46 X_NUC_1.L_CORE X_NUC_47.L_CORE 0.003887
K_47 X_NUC_1.L_CORE X_NUC_48.L_CORE 0.003855
K_48 X_NUC_1.L_CORE X_NUC_49.L_CORE 0.003287
K_49 X_NUC_1.L_CORE X_NUC_50.L_CORE 0.003273
K_50 X_NUC_1.L_CORE X_NUC_51.L_CORE 0.003238
K_51 X_NUC_1.L_CORE X_NUC_52.L_CORE 0.003272
K_52 X_NUC_1.L_CORE X_NUC_53.L_CORE 0.003934
K_53 X_NUC_1.L_CORE X_NUC_54.L_CORE 0.003962
K_54 X_NUC_1.L_CORE X_NUC_55.L_CORE 0.003908
K_55 X_NUC_1.L_CORE X_NUC_56.L_CORE 0.003894
K_56 X_NUC_1.L_CORE X_NUC_57.L_CORE 0.003194
K_57 X_NUC_1.L_CORE X_NUC_58.L_CORE 0.003164
K_58 X_NUC_1.L_CORE X_NUC_59.L_CORE 0.003151
K_59 X_NUC_1.L_CORE X_NUC_60.L_CORE 0.003153
K_60 X_NUC_1.L_CORE X_NUC_61.L_CORE 0.003226
K_61 X_NUC_1.L_CORE X_NUC_62.L_CORE 0.003234
K_62 X_NUC_1.L_CORE X_NUC_63.L_CORE 0.003188
K_63 X_NUC_1.L_CORE X_NUC_64.L_CORE 0.003213
K_64 X_NUC_1.L_CORE X_NUC_65.L_CORE 0.003358
K_65 X_NUC_1.L_CORE X_NUC_66.L_CORE 0.003353
K_66 X_NUC_1.L_CORE X_NUC_67.L_CORE 0.003328
K_67 X_NUC_1.L_CORE X_NUC_68.L_CORE 0.003312
K_68 X_NUC_1.L_CORE X_NUC_69.L_CORE 0.002905
K_69 X_NUC_1.L_CORE X_NUC_70.L_CORE 0.002891
K_70 X_NUC_1.L_CORE X_NUC_71.L_CORE 0.002867
K_71 X_NUC_1.L_CORE X_NUC_72.L_CORE 0.002880
K_72 X_NUC_1.L_CORE X_NUC_73.L_CORE 0.003095
K_73 X_NUC_1.L_CORE X_NUC_74.L_CORE 0.003102
K_74 X_NUC_1.L_CORE X_NUC_75.L_CORE 0.003064
K_75 X_NUC_1.L_CORE X_NUC_76.L_CORE 0.003070
K_76 X_NUC_1.L_CORE X_NUC_77.L_CORE 0.002914
K_77 X_NUC_1.L_CORE X_NUC_78.L_CORE 0.002905
K_78 X_NUC_1.L_CORE X_NUC_79.L_CORE 0.002882
K_79 X_NUC_1.L_CORE X_NUC_80.L_CORE 0.002882
K_80 X_NUC_1.L_CORE X_NUC_81.L_CORE 0.031656
K_81 X_NUC_1.L_CORE X_NUC_82.L_CORE 0.005592
K_82 X_NUC_1.L_CORE X_NUC_83.L_CORE 0.005850
K_83 X_NUC_1.L_CORE X_NUC_84.L_CORE 0.005776
K_84 X_NUC_1.L_CORE X_NUC_85.L_CORE 0.003663
K_85 X_NUC_1.L_CORE X_NUC_86.L_CORE 0.004786
K_86 X_NUC_1.L_CORE X_NUC_87.L_CORE 0.003515
K_87 X_NUC_1.L_CORE X_NUC_88.L_CORE 0.003246
K_88 X_NUC_1.L_CORE X_NUC_89.L_CORE 0.003652
K_89 X_NUC_1.L_CORE X_NUC_90.L_CORE 0.002821
K_90 X_NUC_1.L_CORE X_NUC_91.L_CORE 0.003033
K_91 X_NUC_1.L_CORE X_NUC_92.L_CORE 0.002844
K_92 X_NUC_1.L_CORE X_NUC_93.L_CORE 0.002617
K_93 X_NUC_2.L_CORE X_NUC_3.L_CORE 0.207973
K_94 X_NUC_2.L_CORE X_NUC_4.L_CORE 0.207973
K_95 X_NUC_2.L_CORE X_NUC_5.L_CORE 0.007426
K_96 X_NUC_2.L_CORE X_NUC_6.L_CORE 0.007185
K_97 X_NUC_2.L_CORE X_NUC_7.L_CORE 0.007238
K_98 X_NUC_2.L_CORE X_NUC_8.L_CORE 0.007317
K_99 X_NUC_2.L_CORE X_NUC_9.L_CORE 0.007638
K_100 X_NUC_2.L_CORE X_NUC_10.L_CORE 0.007753
K_101 X_NUC_2.L_CORE X_NUC_11.L_CORE 0.007520
K_102 X_NUC_2.L_CORE X_NUC_12.L_CORE 0.007763
K_103 X_NUC_2.L_CORE X_NUC_13.L_CORE 0.008397
K_104 X_NUC_2.L_CORE X_NUC_14.L_CORE 0.008248
K_105 X_NUC_2.L_CORE X_NUC_15.L_CORE 0.008344
K_106 X_NUC_2.L_CORE X_NUC_16.L_CORE 0.008095
K_107 X_NUC_2.L_CORE X_NUC_17.L_CORE 0.004758
K_108 X_NUC_2.L_CORE X_NUC_18.L_CORE 0.004697
K_109 X_NUC_2.L_CORE X_NUC_19.L_CORE 0.004662
K_110 X_NUC_2.L_CORE X_NUC_20.L_CORE 0.004742
K_111 X_NUC_2.L_CORE X_NUC_21.L_CORE 0.006751
K_112 X_NUC_2.L_CORE X_NUC_22.L_CORE 0.006931
K_113 X_NUC_2.L_CORE X_NUC_23.L_CORE 0.006740
K_114 X_NUC_2.L_CORE X_NUC_24.L_CORE 0.006747
K_115 X_NUC_2.L_CORE X_NUC_25.L_CORE 0.004758
K_116 X_NUC_2.L_CORE X_NUC_26.L_CORE 0.004668
K_117 X_NUC_2.L_CORE X_NUC_27.L_CORE 0.004685
K_118 X_NUC_2.L_CORE X_NUC_28.L_CORE 0.004664
K_119 X_NUC_2.L_CORE X_NUC_29.L_CORE 0.004233
K_120 X_NUC_2.L_CORE X_NUC_30.L_CORE 0.004238
K_121 X_NUC_2.L_CORE X_NUC_31.L_CORE 0.004168
K_122 X_NUC_2.L_CORE X_NUC_32.L_CORE 0.004240
K_123 X_NUC_2.L_CORE X_NUC_33.L_CORE 0.005316
K_124 X_NUC_2.L_CORE X_NUC_34.L_CORE 0.005342
K_125 X_NUC_2.L_CORE X_NUC_35.L_CORE 0.005299
K_126 X_NUC_2.L_CORE X_NUC_36.L_CORE 0.005216
K_127 X_NUC_2.L_CORE X_NUC_37.L_CORE 0.003659
K_128 X_NUC_2.L_CORE X_NUC_38.L_CORE 0.003613
K_129 X_NUC_2.L_CORE X_NUC_39.L_CORE 0.003598
K_130 X_NUC_2.L_CORE X_NUC_40.L_CORE 0.003622
K_131 X_NUC_2.L_CORE X_NUC_41.L_CORE 0.004161
K_132 X_NUC_2.L_CORE X_NUC_42.L_CORE 0.004207
K_133 X_NUC_2.L_CORE X_NUC_43.L_CORE 0.004124
K_134 X_NUC_2.L_CORE X_NUC_44.L_CORE 0.004157
K_135 X_NUC_2.L_CORE X_NUC_45.L_CORE 0.003962
K_136 X_NUC_2.L_CORE X_NUC_46.L_CORE 0.003927
K_137 X_NUC_2.L_CORE X_NUC_47.L_CORE 0.003921
K_138 X_NUC_2.L_CORE X_NUC_48.L_CORE 0.003888
K_139 X_NUC_2.L_CORE X_NUC_49.L_CORE 0.003301
K_140 X_NUC_2.L_CORE X_NUC_50.L_CORE 0.003287
K_141 X_NUC_2.L_CORE X_NUC_51.L_CORE 0.003252
K_142 X_NUC_2.L_CORE X_NUC_52.L_CORE 0.003286
K_143 X_NUC_2.L_CORE X_NUC_53.L_CORE 0.003904
K_144 X_NUC_2.L_CORE X_NUC_54.L_CORE 0.003934
K_145 X_NUC_2.L_CORE X_NUC_55.L_CORE 0.003879
K_146 X_NUC_2.L_CORE X_NUC_56.L_CORE 0.003866
K_147 X_NUC_2.L_CORE X_NUC_57.L_CORE 0.003224
K_148 X_NUC_2.L_CORE X_NUC_58.L_CORE 0.003194
K_149 X_NUC_2.L_CORE X_NUC_59.L_CORE 0.003181
K_150 X_NUC_2.L_CORE X_NUC_60.L_CORE 0.003182
K_151 X_NUC_2.L_CORE X_NUC_61.L_CORE 0.003218
K_152 X_NUC_2.L_CORE X_NUC_62.L_CORE 0.003226
K_153 X_NUC_2.L_CORE X_NUC_63.L_CORE 0.003180
K_154 X_NUC_2.L_CORE X_NUC_64.L_CORE 0.003205
K_155 X_NUC_2.L_CORE X_NUC_65.L_CORE 0.003363
K_156 X_NUC_2.L_CORE X_NUC_66.L_CORE 0.003358
K_157 X_NUC_2.L_CORE X_NUC_67.L_CORE 0.003333
K_158 X_NUC_2.L_CORE X_NUC_68.L_CORE 0.003317
K_159 X_NUC_2.L_CORE X_NUC_69.L_CORE 0.002920
K_160 X_NUC_2.L_CORE X_NUC_70.L_CORE 0.002905
K_161 X_NUC_2.L_CORE X_NUC_71.L_CORE 0.002881
K_162 X_NUC_2.L_CORE X_NUC_72.L_CORE 0.002895
K_163 X_NUC_2.L_CORE X_NUC_73.L_CORE 0.003087
K_164 X_NUC_2.L_CORE X_NUC_74.L_CORE 0.003095
K_165 X_NUC_2.L_CORE X_NUC_75.L_CORE 0.003057
K_166 X_NUC_2.L_CORE X_NUC_76.L_CORE 0.003062
K_167 X_NUC_2.L_CORE X_NUC_77.L_CORE 0.002924
K_168 X_NUC_2.L_CORE X_NUC_78.L_CORE 0.002914
K_169 X_NUC_2.L_CORE X_NUC_79.L_CORE 0.002891
K_170 X_NUC_2.L_CORE X_NUC_80.L_CORE 0.002891
K_171 X_NUC_2.L_CORE X_NUC_81.L_CORE 0.029306
K_172 X_NUC_2.L_CORE X_NUC_82.L_CORE 0.005742
K_173 X_NUC_2.L_CORE X_NUC_83.L_CORE 0.005769
K_174 X_NUC_2.L_CORE X_NUC_84.L_CORE 0.005835
K_175 X_NUC_2.L_CORE X_NUC_85.L_CORE 0.003699
K_176 X_NUC_2.L_CORE X_NUC_86.L_CORE 0.004704
K_177 X_NUC_2.L_CORE X_NUC_87.L_CORE 0.003562
K_178 X_NUC_2.L_CORE X_NUC_88.L_CORE 0.003242
K_179 X_NUC_2.L_CORE X_NUC_89.L_CORE 0.003642
K_180 X_NUC_2.L_CORE X_NUC_90.L_CORE 0.002844
K_181 X_NUC_2.L_CORE X_NUC_91.L_CORE 0.003018
K_182 X_NUC_2.L_CORE X_NUC_92.L_CORE 0.002855
K_183 X_NUC_2.L_CORE X_NUC_93.L_CORE 0.002622
K_184 X_NUC_3.L_CORE X_NUC_4.L_CORE 0.207973
K_185 X_NUC_3.L_CORE X_NUC_5.L_CORE 0.007364
K_186 X_NUC_3.L_CORE X_NUC_6.L_CORE 0.007124
K_187 X_NUC_3.L_CORE X_NUC_7.L_CORE 0.007185
K_188 X_NUC_3.L_CORE X_NUC_8.L_CORE 0.007258
K_189 X_NUC_3.L_CORE X_NUC_9.L_CORE 0.007877
K_190 X_NUC_3.L_CORE X_NUC_10.L_CORE 0.007998
K_191 X_NUC_3.L_CORE X_NUC_11.L_CORE 0.007753
K_192 X_NUC_3.L_CORE X_NUC_12.L_CORE 0.008015
K_193 X_NUC_3.L_CORE X_NUC_13.L_CORE 0.008292
K_194 X_NUC_3.L_CORE X_NUC_14.L_CORE 0.008142
K_195 X_NUC_3.L_CORE X_NUC_15.L_CORE 0.008248
K_196 X_NUC_3.L_CORE X_NUC_16.L_CORE 0.008000
K_197 X_NUC_3.L_CORE X_NUC_17.L_CORE 0.004793
K_198 X_NUC_3.L_CORE X_NUC_18.L_CORE 0.004730
K_199 X_NUC_3.L_CORE X_NUC_19.L_CORE 0.004697
K_200 X_NUC_3.L_CORE X_NUC_20.L_CORE 0.004777
K_201 X_NUC_3.L_CORE X_NUC_21.L_CORE 0.006938
K_202 X_NUC_3.L_CORE X_NUC_22.L_CORE 0.007130
K_203 X_NUC_3.L_CORE X_NUC_23.L_CORE 0.006931
K_204 X_NUC_3.L_CORE X_NUC_24.L_CORE 0.006934
K_205 X_NUC_3.L_CORE X_NUC_25.L_CORE 0.004738
K_206 X_NUC_3.L_CORE X_NUC_26.L_CORE 0.004648
K_207 X_NUC_3.L_CORE X_NUC_27.L_CORE 0.004668
K_208 X_NUC_3.L_CORE X_NUC_28.L_CORE 0.004645
K_209 X_NUC_3.L_CORE X_NUC_29.L_CORE 0.004305
K_210 X_NUC_3.L_CORE X_NUC_30.L_CORE 0.004310
K_211 X_NUC_3.L_CORE X_NUC_31.L_CORE 0.004238
K_212 X_NUC_3.L_CORE X_NUC_32.L_CORE 0.004313
K_213 X_NUC_3.L_CORE X_NUC_33.L_CORE 0.005357
K_214 X_NUC_3.L_CORE X_NUC_34.L_CORE 0.005383
K_215 X_NUC_3.L_CORE X_NUC_35.L_CORE 0.005342
K_216 X_NUC_3.L_CORE X_NUC_36.L_CORE 0.005256
K_217 X_NUC_3.L_CORE X_NUC_37.L_CORE 0.003674
K_218 X_NUC_3.L_CORE X_NUC_38.L_CORE 0.003627
K_219 X_NUC_3.L_CORE X_NUC_39.L_CORE 0.003613
K_220 X_NUC_3.L_CORE X_NUC_40.L_CORE 0.003637
K_221 X_NUC_3.L_CORE X_NUC_41.L_CORE 0.004246
K_222 X_NUC_3.L_CORE X_NUC_42.L_CORE 0.004293
K_223 X_NUC_3.L_CORE X_NUC_43.L_CORE 0.004207
K_224 X_NUC_3.L_CORE X_NUC_44.L_CORE 0.004242
K_225 X_NUC_3.L_CORE X_NUC_45.L_CORE 0.003968
K_226 X_NUC_3.L_CORE X_NUC_46.L_CORE 0.003932
K_227 X_NUC_3.L_CORE X_NUC_47.L_CORE 0.003927
K_228 X_NUC_3.L_CORE X_NUC_48.L_CORE 0.003894
K_229 X_NUC_3.L_CORE X_NUC_49.L_CORE 0.003338
K_230 X_NUC_3.L_CORE X_NUC_50.L_CORE 0.003323
K_231 X_NUC_3.L_CORE X_NUC_51.L_CORE 0.003287
K_232 X_NUC_3.L_CORE X_NUC_52.L_CORE 0.003322
K_233 X_NUC_3.L_CORE X_NUC_53.L_CORE 0.003958
K_234 X_NUC_3.L_CORE X_NUC_54.L_CORE 0.003989
K_235 X_NUC_3.L_CORE X_NUC_55.L_CORE 0.003934
K_236 X_NUC_3.L_CORE X_NUC_56.L_CORE 0.003918
K_237 X_NUC_3.L_CORE X_NUC_57.L_CORE 0.003238
K_238 X_NUC_3.L_CORE X_NUC_58.L_CORE 0.003207
K_239 X_NUC_3.L_CORE X_NUC_59.L_CORE 0.003194
K_240 X_NUC_3.L_CORE X_NUC_60.L_CORE 0.003195
K_241 X_NUC_3.L_CORE X_NUC_61.L_CORE 0.003265
K_242 X_NUC_3.L_CORE X_NUC_62.L_CORE 0.003274
K_243 X_NUC_3.L_CORE X_NUC_63.L_CORE 0.003226
K_244 X_NUC_3.L_CORE X_NUC_64.L_CORE 0.003251
K_245 X_NUC_3.L_CORE X_NUC_65.L_CORE 0.003389
K_246 X_NUC_3.L_CORE X_NUC_66.L_CORE 0.003383
K_247 X_NUC_3.L_CORE X_NUC_67.L_CORE 0.003358
K_248 X_NUC_3.L_CORE X_NUC_68.L_CORE 0.003341
K_249 X_NUC_3.L_CORE X_NUC_69.L_CORE 0.002945
K_250 X_NUC_3.L_CORE X_NUC_70.L_CORE 0.002930
K_251 X_NUC_3.L_CORE X_NUC_71.L_CORE 0.002905
K_252 X_NUC_3.L_CORE X_NUC_72.L_CORE 0.002919
K_253 X_NUC_3.L_CORE X_NUC_73.L_CORE 0.003126
K_254 X_NUC_3.L_CORE X_NUC_74.L_CORE 0.003134
K_255 X_NUC_3.L_CORE X_NUC_75.L_CORE 0.003095
K_256 X_NUC_3.L_CORE X_NUC_76.L_CORE 0.003100
K_257 X_NUC_3.L_CORE X_NUC_77.L_CORE 0.002948
K_258 X_NUC_3.L_CORE X_NUC_78.L_CORE 0.002938
K_259 X_NUC_3.L_CORE X_NUC_79.L_CORE 0.002914
K_260 X_NUC_3.L_CORE X_NUC_80.L_CORE 0.002914
K_261 X_NUC_3.L_CORE X_NUC_81.L_CORE 0.027479
K_262 X_NUC_3.L_CORE X_NUC_82.L_CORE 0.005690
K_263 X_NUC_3.L_CORE X_NUC_83.L_CORE 0.005906
K_264 X_NUC_3.L_CORE X_NUC_84.L_CORE 0.005786
K_265 X_NUC_3.L_CORE X_NUC_85.L_CORE 0.003723
K_266 X_NUC_3.L_CORE X_NUC_86.L_CORE 0.004793
K_267 X_NUC_3.L_CORE X_NUC_87.L_CORE 0.003557
K_268 X_NUC_3.L_CORE X_NUC_88.L_CORE 0.003287
K_269 X_NUC_3.L_CORE X_NUC_89.L_CORE 0.003669
K_270 X_NUC_3.L_CORE X_NUC_90.L_CORE 0.002859
K_271 X_NUC_3.L_CORE X_NUC_91.L_CORE 0.003060
K_272 X_NUC_3.L_CORE X_NUC_92.L_CORE 0.002871
K_273 X_NUC_3.L_CORE X_NUC_93.L_CORE 0.002647
K_274 X_NUC_4.L_CORE X_NUC_5.L_CORE 0.007283
K_275 X_NUC_4.L_CORE X_NUC_6.L_CORE 0.007051
K_276 X_NUC_4.L_CORE X_NUC_7.L_CORE 0.007105
K_277 X_NUC_4.L_CORE X_NUC_8.L_CORE 0.007185
K_278 X_NUC_4.L_CORE X_NUC_9.L_CORE 0.007624
K_279 X_NUC_4.L_CORE X_NUC_10.L_CORE 0.007733
K_280 X_NUC_4.L_CORE X_NUC_11.L_CORE 0.007506
K_281 X_NUC_4.L_CORE X_NUC_12.L_CORE 0.007753
K_282 X_NUC_4.L_CORE X_NUC_13.L_CORE 0.008561
K_283 X_NUC_4.L_CORE X_NUC_14.L_CORE 0.008396
K_284 X_NUC_4.L_CORE X_NUC_15.L_CORE 0.008505
K_285 X_NUC_4.L_CORE X_NUC_16.L_CORE 0.008248
K_286 X_NUC_4.L_CORE X_NUC_17.L_CORE 0.004711
K_287 X_NUC_4.L_CORE X_NUC_18.L_CORE 0.004651
K_288 X_NUC_4.L_CORE X_NUC_19.L_CORE 0.004618
K_289 X_NUC_4.L_CORE X_NUC_20.L_CORE 0.004697
K_290 X_NUC_4.L_CORE X_NUC_21.L_CORE 0.006931
K_291 X_NUC_4.L_CORE X_NUC_22.L_CORE 0.007122
K_292 X_NUC_4.L_CORE X_NUC_23.L_CORE 0.006919
K_293 X_NUC_4.L_CORE X_NUC_24.L_CORE 0.006931
K_294 X_NUC_4.L_CORE X_NUC_25.L_CORE 0.004761
K_295 X_NUC_4.L_CORE X_NUC_26.L_CORE 0.004669
K_296 X_NUC_4.L_CORE X_NUC_27.L_CORE 0.004688
K_297 X_NUC_4.L_CORE X_NUC_28.L_CORE 0.004668
K_298 X_NUC_4.L_CORE X_NUC_29.L_CORE 0.004230
K_299 X_NUC_4.L_CORE X_NUC_30.L_CORE 0.004234
K_300 X_NUC_4.L_CORE X_NUC_31.L_CORE 0.004165
K_301 X_NUC_4.L_CORE X_NUC_32.L_CORE 0.004238
K_302 X_NUC_4.L_CORE X_NUC_33.L_CORE 0.005447
K_303 X_NUC_4.L_CORE X_NUC_34.L_CORE 0.005474
K_304 X_NUC_4.L_CORE X_NUC_35.L_CORE 0.005430
K_305 X_NUC_4.L_CORE X_NUC_36.L_CORE 0.005342
K_306 X_NUC_4.L_CORE X_NUC_37.L_CORE 0.003649
K_307 X_NUC_4.L_CORE X_NUC_38.L_CORE 0.003603
K_308 X_NUC_4.L_CORE X_NUC_39.L_CORE 0.003589
K_309 X_NUC_4.L_CORE X_NUC_40.L_CORE 0.003613
K_310 X_NUC_4.L_CORE X_NUC_41.L_CORE 0.004210
K_311 X_NUC_4.L_CORE X_NUC_42.L_CORE 0.004256
K_312 X_NUC_4.L_CORE X_NUC_43.L_CORE 0.004171
K_313 X_NUC_4.L_CORE X_NUC_44.L_CORE 0.004207
K_314 X_NUC_4.L_CORE X_NUC_45.L_CORE 0.004003
K_315 X_NUC_4.L_CORE X_NUC_46.L_CORE 0.003967
K_316 X_NUC_4.L_CORE X_NUC_47.L_CORE 0.003961
K_317 X_NUC_4.L_CORE X_NUC_48.L_CORE 0.003927
K_318 X_NUC_4.L_CORE X_NUC_49.L_CORE 0.003302
K_319 X_NUC_4.L_CORE X_NUC_50.L_CORE 0.003288
K_320 X_NUC_4.L_CORE X_NUC_51.L_CORE 0.003253
K_321 X_NUC_4.L_CORE X_NUC_52.L_CORE 0.003287
K_322 X_NUC_4.L_CORE X_NUC_53.L_CORE 0.003973
K_323 X_NUC_4.L_CORE X_NUC_54.L_CORE 0.004004
K_324 X_NUC_4.L_CORE X_NUC_55.L_CORE 0.003948
K_325 X_NUC_4.L_CORE X_NUC_56.L_CORE 0.003934
K_326 X_NUC_4.L_CORE X_NUC_57.L_CORE 0.003236
K_327 X_NUC_4.L_CORE X_NUC_58.L_CORE 0.003205
K_328 X_NUC_4.L_CORE X_NUC_59.L_CORE 0.003192
K_329 X_NUC_4.L_CORE X_NUC_60.L_CORE 0.003194
K_330 X_NUC_4.L_CORE X_NUC_61.L_CORE 0.003240
K_331 X_NUC_4.L_CORE X_NUC_62.L_CORE 0.003248
K_332 X_NUC_4.L_CORE X_NUC_63.L_CORE 0.003201
K_333 X_NUC_4.L_CORE X_NUC_64.L_CORE 0.003226
K_334 X_NUC_4.L_CORE X_NUC_65.L_CORE 0.003406
K_335 X_NUC_4.L_CORE X_NUC_66.L_CORE 0.003401
K_336 X_NUC_4.L_CORE X_NUC_67.L_CORE 0.003375
K_337 X_NUC_4.L_CORE X_NUC_68.L_CORE 0.003358
K_338 X_NUC_4.L_CORE X_NUC_69.L_CORE 0.002931
K_339 X_NUC_4.L_CORE X_NUC_70.L_CORE 0.002916
K_340 X_NUC_4.L_CORE X_NUC_71.L_CORE 0.002891
K_341 X_NUC_4.L_CORE X_NUC_72.L_CORE 0.002905
K_342 X_NUC_4.L_CORE X_NUC_73.L_CORE 0.003120
K_343 X_NUC_4.L_CORE X_NUC_74.L_CORE 0.003128
K_344 X_NUC_4.L_CORE X_NUC_75.L_CORE 0.003089
K_345 X_NUC_4.L_CORE X_NUC_76.L_CORE 0.003095
K_346 X_NUC_4.L_CORE X_NUC_77.L_CORE 0.002947
K_347 X_NUC_4.L_CORE X_NUC_78.L_CORE 0.002938
K_348 X_NUC_4.L_CORE X_NUC_79.L_CORE 0.002914
K_349 X_NUC_4.L_CORE X_NUC_80.L_CORE 0.002914
K_350 X_NUC_4.L_CORE X_NUC_81.L_CORE 0.029389
K_351 X_NUC_4.L_CORE X_NUC_82.L_CORE 0.005651
K_352 X_NUC_4.L_CORE X_NUC_83.L_CORE 0.005769
K_353 X_NUC_4.L_CORE X_NUC_84.L_CORE 0.005923
K_354 X_NUC_4.L_CORE X_NUC_85.L_CORE 0.003675
K_355 X_NUC_4.L_CORE X_NUC_86.L_CORE 0.004796
K_356 X_NUC_4.L_CORE X_NUC_87.L_CORE 0.003571
K_357 X_NUC_4.L_CORE X_NUC_88.L_CORE 0.003248
K_358 X_NUC_4.L_CORE X_NUC_89.L_CORE 0.003703
K_359 X_NUC_4.L_CORE X_NUC_90.L_CORE 0.002847
K_360 X_NUC_4.L_CORE X_NUC_91.L_CORE 0.003047
K_361 X_NUC_4.L_CORE X_NUC_92.L_CORE 0.002880
K_362 X_NUC_4.L_CORE X_NUC_93.L_CORE 0.002636
K_363 X_NUC_5.L_CORE X_NUC_6.L_CORE 0.207973
K_364 X_NUC_5.L_CORE X_NUC_7.L_CORE 0.207973
K_365 X_NUC_5.L_CORE X_NUC_8.L_CORE 0.207973
K_366 X_NUC_5.L_CORE X_NUC_9.L_CORE 0.005114
K_367 X_NUC_5.L_CORE X_NUC_10.L_CORE 0.005233
K_368 X_NUC_5.L_CORE X_NUC_11.L_CORE 0.005140
K_369 X_NUC_5.L_CORE X_NUC_12.L_CORE 0.005187
K_370 X_NUC_5.L_CORE X_NUC_13.L_CORE 0.006266
K_371 X_NUC_5.L_CORE X_NUC_14.L_CORE 0.006354
K_372 X_NUC_5.L_CORE X_NUC_15.L_CORE 0.006361
K_373 X_NUC_5.L_CORE X_NUC_16.L_CORE 0.006199
K_374 X_NUC_5.L_CORE X_NUC_17.L_CORE 0.007821
K_375 X_NUC_5.L_CORE X_NUC_18.L_CORE 0.007835
K_376 X_NUC_5.L_CORE X_NUC_19.L_CORE 0.007614
K_377 X_NUC_5.L_CORE X_NUC_20.L_CORE 0.007873
K_378 X_NUC_5.L_CORE X_NUC_21.L_CORE 0.003871
K_379 X_NUC_5.L_CORE X_NUC_22.L_CORE 0.003941
K_380 X_NUC_5.L_CORE X_NUC_23.L_CORE 0.003897
K_381 X_NUC_5.L_CORE X_NUC_24.L_CORE 0.003886
K_382 X_NUC_5.L_CORE X_NUC_25.L_CORE 0.007524
K_383 X_NUC_5.L_CORE X_NUC_26.L_CORE 0.007418
K_384 X_NUC_5.L_CORE X_NUC_27.L_CORE 0.007430
K_385 X_NUC_5.L_CORE X_NUC_28.L_CORE 0.007266
K_386 X_NUC_5.L_CORE X_NUC_29.L_CORE 0.004196
K_387 X_NUC_5.L_CORE X_NUC_30.L_CORE 0.004247
K_388 X_NUC_5.L_CORE X_NUC_31.L_CORE 0.004167
K_389 X_NUC_5.L_CORE X_NUC_32.L_CORE 0.004223
K_390 X_NUC_5.L_CORE X_NUC_33.L_CORE 0.003816
K_391 X_NUC_5.L_CORE X_NUC_34.L_CORE 0.003860
K_392 X_NUC_5.L_CORE X_NUC_35.L_CORE 0.003836
K_393 X_NUC_5.L_CORE X_NUC_36.L_CORE 0.003793
K_394 X_NUC_5.L_CORE X_NUC_37.L_CORE 0.005913
K_395 X_NUC_5.L_CORE X_NUC_38.L_CORE 0.005843
K_396 X_NUC_5.L_CORE X_NUC_39.L_CORE 0.005752
K_397 X_NUC_5.L_CORE X_NUC_40.L_CORE 0.005811
K_398 X_NUC_5.L_CORE X_NUC_41.L_CORE 0.003255
K_399 X_NUC_5.L_CORE X_NUC_42.L_CORE 0.003298
K_400 X_NUC_5.L_CORE X_NUC_43.L_CORE 0.003253
K_401 X_NUC_5.L_CORE X_NUC_44.L_CORE 0.003262
K_402 X_NUC_5.L_CORE X_NUC_45.L_CORE 0.004227
K_403 X_NUC_5.L_CORE X_NUC_46.L_CORE 0.004230
K_404 X_NUC_5.L_CORE X_NUC_47.L_CORE 0.004211
K_405 X_NUC_5.L_CORE X_NUC_48.L_CORE 0.004156
K_406 X_NUC_5.L_CORE X_NUC_49.L_CORE 0.003909
K_407 X_NUC_5.L_CORE X_NUC_50.L_CORE 0.003923
K_408 X_NUC_5.L_CORE X_NUC_51.L_CORE 0.003855
K_409 X_NUC_5.L_CORE X_NUC_52.L_CORE 0.003899
K_410 X_NUC_5.L_CORE X_NUC_53.L_CORE 0.003065
K_411 X_NUC_5.L_CORE X_NUC_54.L_CORE 0.003097
K_412 X_NUC_5.L_CORE X_NUC_55.L_CORE 0.003066
K_413 X_NUC_5.L_CORE X_NUC_56.L_CORE 0.003053
K_414 X_NUC_5.L_CORE X_NUC_57.L_CORE 0.004189
K_415 X_NUC_5.L_CORE X_NUC_58.L_CORE 0.004166
K_416 X_NUC_5.L_CORE X_NUC_59.L_CORE 0.004127
K_417 X_NUC_5.L_CORE X_NUC_60.L_CORE 0.004117
K_418 X_NUC_5.L_CORE X_NUC_61.L_CORE 0.003068
K_419 X_NUC_5.L_CORE X_NUC_62.L_CORE 0.003094
K_420 X_NUC_5.L_CORE X_NUC_63.L_CORE 0.003049
K_421 X_NUC_5.L_CORE X_NUC_64.L_CORE 0.003064
K_422 X_NUC_5.L_CORE X_NUC_65.L_CORE 0.003178
K_423 X_NUC_5.L_CORE X_NUC_66.L_CORE 0.003194
K_424 X_NUC_5.L_CORE X_NUC_67.L_CORE 0.003167
K_425 X_NUC_5.L_CORE X_NUC_68.L_CORE 0.003147
K_426 X_NUC_5.L_CORE X_NUC_69.L_CORE 0.003437
K_427 X_NUC_5.L_CORE X_NUC_70.L_CORE 0.003438
K_428 X_NUC_5.L_CORE X_NUC_71.L_CORE 0.003392
K_429 X_NUC_5.L_CORE X_NUC_72.L_CORE 0.003406
K_430 X_NUC_5.L_CORE X_NUC_73.L_CORE 0.002846
K_431 X_NUC_5.L_CORE X_NUC_74.L_CORE 0.002866
K_432 X_NUC_5.L_CORE X_NUC_75.L_CORE 0.002833
K_433 X_NUC_5.L_CORE X_NUC_76.L_CORE 0.002832
K_434 X_NUC_5.L_CORE X_NUC_77.L_CORE 0.003095
K_435 X_NUC_5.L_CORE X_NUC_78.L_CORE 0.003102
K_436 X_NUC_5.L_CORE X_NUC_79.L_CORE 0.003070
K_437 X_NUC_5.L_CORE X_NUC_80.L_CORE 0.003064
K_438 X_NUC_5.L_CORE X_NUC_81.L_CORE 0.006139
K_439 X_NUC_5.L_CORE X_NUC_82.L_CORE 0.023606
K_440 X_NUC_5.L_CORE X_NUC_83.L_CORE 0.004198
K_441 X_NUC_5.L_CORE X_NUC_84.L_CORE 0.004886
K_442 X_NUC_5.L_CORE X_NUC_85.L_CORE 0.005525
K_443 X_NUC_5.L_CORE X_NUC_86.L_CORE 0.003161
K_444 X_NUC_5.L_CORE X_NUC_87.L_CORE 0.004872
K_445 X_NUC_5.L_CORE X_NUC_88.L_CORE 0.003286
K_446 X_NUC_5.L_CORE X_NUC_89.L_CORE 0.003029
K_447 X_NUC_5.L_CORE X_NUC_90.L_CORE 0.003746
K_448 X_NUC_5.L_CORE X_NUC_91.L_CORE 0.002683
K_449 X_NUC_5.L_CORE X_NUC_92.L_CORE 0.002996
K_450 X_NUC_5.L_CORE X_NUC_93.L_CORE 0.002809
K_451 X_NUC_6.L_CORE X_NUC_7.L_CORE 0.207973
K_452 X_NUC_6.L_CORE X_NUC_8.L_CORE 0.207973
K_453 X_NUC_6.L_CORE X_NUC_9.L_CORE 0.004999
K_454 X_NUC_6.L_CORE X_NUC_10.L_CORE 0.005114
K_455 X_NUC_6.L_CORE X_NUC_11.L_CORE 0.005025
K_456 X_NUC_6.L_CORE X_NUC_12.L_CORE 0.005069
K_457 X_NUC_6.L_CORE X_NUC_13.L_CORE 0.006177
K_458 X_NUC_6.L_CORE X_NUC_14.L_CORE 0.006266
K_459 X_NUC_6.L_CORE X_NUC_15.L_CORE 0.006270
K_460 X_NUC_6.L_CORE X_NUC_16.L_CORE 0.006115
K_461 X_NUC_6.L_CORE X_NUC_17.L_CORE 0.007796
K_462 X_NUC_6.L_CORE X_NUC_18.L_CORE 0.007821
K_463 X_NUC_6.L_CORE X_NUC_19.L_CORE 0.007596
K_464 X_NUC_6.L_CORE X_NUC_20.L_CORE 0.007854
K_465 X_NUC_6.L_CORE X_NUC_21.L_CORE 0.003804
K_466 X_NUC_6.L_CORE X_NUC_22.L_CORE 0.003871
K_467 X_NUC_6.L_CORE X_NUC_23.L_CORE 0.003829
K_468 X_NUC_6.L_CORE X_NUC_24.L_CORE 0.003818
K_469 X_NUC_6.L_CORE X_NUC_25.L_CORE 0.007624
K_470 X_NUC_6.L_CORE X_NUC_26.L_CORE 0.007524
K_471 X_NUC_6.L_CORE X_NUC_27.L_CORE 0.007531
K_472 X_NUC_6.L_CORE X_NUC_28.L_CORE 0.007360
K_473 X_NUC_6.L_CORE X_NUC_29.L_CORE 0.004145
K_474 X_NUC_6.L_CORE X_NUC_30.L_CORE 0.004196
K_475 X_NUC_6.L_CORE X_NUC_31.L_CORE 0.004117
K_476 X_NUC_6.L_CORE X_NUC_32.L_CORE 0.004172
K_477 X_NUC_6.L_CORE X_NUC_33.L_CORE 0.003771
K_478 X_NUC_6.L_CORE X_NUC_34.L_CORE 0.003816
K_479 X_NUC_6.L_CORE X_NUC_35.L_CORE 0.003791
K_480 X_NUC_6.L_CORE X_NUC_36.L_CORE 0.003750
K_481 X_NUC_6.L_CORE X_NUC_37.L_CORE 0.005981
K_482 X_NUC_6.L_CORE X_NUC_38.L_CORE 0.005913
K_483 X_NUC_6.L_CORE X_NUC_39.L_CORE 0.005817
K_484 X_NUC_6.L_CORE X_NUC_40.L_CORE 0.005878
K_485 X_NUC_6.L_CORE X_NUC_41.L_CORE 0.003213
K_486 X_NUC_6.L_CORE X_NUC_42.L_CORE 0.003255
K_487 X_NUC_6.L_CORE X_NUC_43.L_CORE 0.003211
K_488 X_NUC_6.L_CORE X_NUC_44.L_CORE 0.003220
K_489 X_NUC_6.L_CORE X_NUC_45.L_CORE 0.004221
K_490 X_NUC_6.L_CORE X_NUC_46.L_CORE 0.004227
K_491 X_NUC_6.L_CORE X_NUC_47.L_CORE 0.004207
K_492 X_NUC_6.L_CORE X_NUC_48.L_CORE 0.004152
K_493 X_NUC_6.L_CORE X_NUC_49.L_CORE 0.003895
K_494 X_NUC_6.L_CORE X_NUC_50.L_CORE 0.003909
K_495 X_NUC_6.L_CORE X_NUC_51.L_CORE 0.003841
K_496 X_NUC_6.L_CORE X_NUC_52.L_CORE 0.003886
K_497 X_NUC_6.L_CORE X_NUC_53.L_CORE 0.003033
K_498 X_NUC_6.L_CORE X_NUC_54.L_CORE 0.003065
K_499 X_NUC_6.L_CORE X_NUC_55.L_CORE 0.003035
K_500 X_NUC_6.L_CORE X_NUC_56.L_CORE 0.003022
K_501 X_NUC_6.L_CORE X_NUC_57.L_CORE 0.004210
K_502 X_NUC_6.L_CORE X_NUC_58.L_CORE 0.004189
K_503 X_NUC_6.L_CORE X_NUC_59.L_CORE 0.004148
K_504 X_NUC_6.L_CORE X_NUC_60.L_CORE 0.004138
K_505 X_NUC_6.L_CORE X_NUC_61.L_CORE 0.003043
K_506 X_NUC_6.L_CORE X_NUC_62.L_CORE 0.003068
K_507 X_NUC_6.L_CORE X_NUC_63.L_CORE 0.003024
K_508 X_NUC_6.L_CORE X_NUC_64.L_CORE 0.003039
K_509 X_NUC_6.L_CORE X_NUC_65.L_CORE 0.003162
K_510 X_NUC_6.L_CORE X_NUC_66.L_CORE 0.003178
K_511 X_NUC_6.L_CORE X_NUC_67.L_CORE 0.003152
K_512 X_NUC_6.L_CORE X_NUC_68.L_CORE 0.003131
K_513 X_NUC_6.L_CORE X_NUC_69.L_CORE 0.003435
K_514 X_NUC_6.L_CORE X_NUC_70.L_CORE 0.003437
K_515 X_NUC_6.L_CORE X_NUC_71.L_CORE 0.003391
K_516 X_NUC_6.L_CORE X_NUC_72.L_CORE 0.003405
K_517 X_NUC_6.L_CORE X_NUC_73.L_CORE 0.002825
K_518 X_NUC_6.L_CORE X_NUC_74.L_CORE 0.002846
K_519 X_NUC_6.L_CORE X_NUC_75.L_CORE 0.002813
K_520 X_NUC_6.L_CORE X_NUC_76.L_CORE 0.002812
K_521 X_NUC_6.L_CORE X_NUC_77.L_CORE 0.003087
K_522 X_NUC_6.L_CORE X_NUC_78.L_CORE 0.003095
K_523 X_NUC_6.L_CORE X_NUC_79.L_CORE 0.003063
K_524 X_NUC_6.L_CORE X_NUC_80.L_CORE 0.003057
K_525 X_NUC_6.L_CORE X_NUC_81.L_CORE 0.005980
K_526 X_NUC_6.L_CORE X_NUC_82.L_CORE 0.026563
K_527 X_NUC_6.L_CORE X_NUC_83.L_CORE 0.004123
K_528 X_NUC_6.L_CORE X_NUC_84.L_CORE 0.004848
K_529 X_NUC_6.L_CORE X_NUC_85.L_CORE 0.005541
K_530 X_NUC_6.L_CORE X_NUC_86.L_CORE 0.003117
K_531 X_NUC_6.L_CORE X_NUC_87.L_CORE 0.004920
K_532 X_NUC_6.L_CORE X_NUC_88.L_CORE 0.003261
K_533 X_NUC_6.L_CORE X_NUC_89.L_CORE 0.003005
K_534 X_NUC_6.L_CORE X_NUC_90.L_CORE 0.003766
K_535 X_NUC_6.L_CORE X_NUC_91.L_CORE 0.002660
K_536 X_NUC_6.L_CORE X_NUC_92.L_CORE 0.002992
K_537 X_NUC_6.L_CORE X_NUC_93.L_CORE 0.002801
K_538 X_NUC_7.L_CORE X_NUC_8.L_CORE 0.207973
K_539 X_NUC_7.L_CORE X_NUC_9.L_CORE 0.005085
K_540 X_NUC_7.L_CORE X_NUC_10.L_CORE 0.005203
K_541 X_NUC_7.L_CORE X_NUC_11.L_CORE 0.005114
K_542 X_NUC_7.L_CORE X_NUC_12.L_CORE 0.005158
K_543 X_NUC_7.L_CORE X_NUC_13.L_CORE 0.006170
K_544 X_NUC_7.L_CORE X_NUC_14.L_CORE 0.006257
K_545 X_NUC_7.L_CORE X_NUC_15.L_CORE 0.006266
K_546 X_NUC_7.L_CORE X_NUC_16.L_CORE 0.006108
K_547 X_NUC_7.L_CORE X_NUC_17.L_CORE 0.008033
K_548 X_NUC_7.L_CORE X_NUC_18.L_CORE 0.008054
K_549 X_NUC_7.L_CORE X_NUC_19.L_CORE 0.007821
K_550 X_NUC_7.L_CORE X_NUC_20.L_CORE 0.008096
K_551 X_NUC_7.L_CORE X_NUC_21.L_CORE 0.003845
K_552 X_NUC_7.L_CORE X_NUC_22.L_CORE 0.003914
K_553 X_NUC_7.L_CORE X_NUC_23.L_CORE 0.003871
K_554 X_NUC_7.L_CORE X_NUC_24.L_CORE 0.003860
K_555 X_NUC_7.L_CORE X_NUC_25.L_CORE 0.007611
K_556 X_NUC_7.L_CORE X_NUC_26.L_CORE 0.007507
K_557 X_NUC_7.L_CORE X_NUC_27.L_CORE 0.007524
K_558 X_NUC_7.L_CORE X_NUC_28.L_CORE 0.007349
K_559 X_NUC_7.L_CORE X_NUC_29.L_CORE 0.004225
K_560 X_NUC_7.L_CORE X_NUC_30.L_CORE 0.004278
K_561 X_NUC_7.L_CORE X_NUC_31.L_CORE 0.004196
K_562 X_NUC_7.L_CORE X_NUC_32.L_CORE 0.004253
K_563 X_NUC_7.L_CORE X_NUC_33.L_CORE 0.003795
K_564 X_NUC_7.L_CORE X_NUC_34.L_CORE 0.003839
K_565 X_NUC_7.L_CORE X_NUC_35.L_CORE 0.003816
K_566 X_NUC_7.L_CORE X_NUC_36.L_CORE 0.003773
K_567 X_NUC_7.L_CORE X_NUC_37.L_CORE 0.006082
K_568 X_NUC_7.L_CORE X_NUC_38.L_CORE 0.006008
K_569 X_NUC_7.L_CORE X_NUC_39.L_CORE 0.005913
K_570 X_NUC_7.L_CORE X_NUC_40.L_CORE 0.005974
K_571 X_NUC_7.L_CORE X_NUC_41.L_CORE 0.003256
K_572 X_NUC_7.L_CORE X_NUC_42.L_CORE 0.003300
K_573 X_NUC_7.L_CORE X_NUC_43.L_CORE 0.003255
K_574 X_NUC_7.L_CORE X_NUC_44.L_CORE 0.003264
K_575 X_NUC_7.L_CORE X_NUC_45.L_CORE 0.004240
K_576 X_NUC_7.L_CORE X_NUC_46.L_CORE 0.004244
K_577 X_NUC_7.L_CORE X_NUC_47.L_CORE 0.004227
K_578 X_NUC_7.L_CORE X_NUC_48.L_CORE 0.004169
K_579 X_NUC_7.L_CORE X_NUC_49.L_CORE 0.003965
K_580 X_NUC_7.L_CORE X_NUC_50.L_CORE 0.003980
K_581 X_NUC_7.L_CORE X_NUC_51.L_CORE 0.003909
K_582 X_NUC_7.L_CORE X_NUC_52.L_CORE 0.003956
K_583 X_NUC_7.L_CORE X_NUC_53.L_CORE 0.003063