* Applied Vacuum Engineering (AVE) - SPICE Netlist
* Element: Radon-222 (Z=86, A=222)
* Auto-generated topological mutual impedance array
* Nodes: 222



* -----------------------------------------------------------------
* NUCLEON (Baseline 6^3_2 Topological Defect)
* -----------------------------------------------------------------
.SUBCKT NUCLEON IN OUT
L_CORE IN OUT 1uH
C_CORE IN OUT 1pF
.ENDS NUCLEON



* -----------------------------------------------------------------
* MACROSCOPIC TOPOLOGY (Nucleon Array)
* -----------------------------------------------------------------
V_STIM NODE_1 0 AC 1 PULSE(0 100k 10n 1n 1n 50n 100n)

X_NUC_1 NODE_1 0 NUCLEON
X_NUC_2 NODE_2 0 NUCLEON
X_NUC_3 NODE_3 0 NUCLEON
X_NUC_4 NODE_4 0 NUCLEON
X_NUC_5 NODE_5 0 NUCLEON
X_NUC_6 NODE_6 0 NUCLEON
X_NUC_7 NODE_7 0 NUCLEON
X_NUC_8 NODE_8 0 NUCLEON
X_NUC_9 NODE_9 0 NUCLEON
X_NUC_10 NODE_10 0 NUCLEON
X_NUC_11 NODE_11 0 NUCLEON
X_NUC_12 NODE_12 0 NUCLEON
X_NUC_13 NODE_13 0 NUCLEON
X_NUC_14 NODE_14 0 NUCLEON
X_NUC_15 NODE_15 0 NUCLEON
X_NUC_16 NODE_16 0 NUCLEON
X_NUC_17 NODE_17 0 NUCLEON
X_NUC_18 NODE_18 0 NUCLEON
X_NUC_19 NODE_19 0 NUCLEON
X_NUC_20 NODE_20 0 NUCLEON
X_NUC_21 NODE_21 0 NUCLEON
X_NUC_22 NODE_22 0 NUCLEON
X_NUC_23 NODE_23 0 NUCLEON
X_NUC_24 NODE_24 0 NUCLEON
X_NUC_25 NODE_25 0 NUCLEON
X_NUC_26 NODE_26 0 NUCLEON
X_NUC_27 NODE_27 0 NUCLEON
X_NUC_28 NODE_28 0 NUCLEON
X_NUC_29 NODE_29 0 NUCLEON
X_NUC_30 NODE_30 0 NUCLEON
X_NUC_31 NODE_31 0 NUCLEON
X_NUC_32 NODE_32 0 NUCLEON
X_NUC_33 NODE_33 0 NUCLEON
X_NUC_34 NODE_34 0 NUCLEON
X_NUC_35 NODE_35 0 NUCLEON
X_NUC_36 NODE_36 0 NUCLEON
X_NUC_37 NODE_37 0 NUCLEON
X_NUC_38 NODE_38 0 NUCLEON
X_NUC_39 NODE_39 0 NUCLEON
X_NUC_40 NODE_40 0 NUCLEON
X_NUC_41 NODE_41 0 NUCLEON
X_NUC_42 NODE_42 0 NUCLEON
X_NUC_43 NODE_43 0 NUCLEON
X_NUC_44 NODE_44 0 NUCLEON
X_NUC_45 NODE_45 0 NUCLEON
X_NUC_46 NODE_46 0 NUCLEON
X_NUC_47 NODE_47 0 NUCLEON
X_NUC_48 NODE_48 0 NUCLEON
X_NUC_49 NODE_49 0 NUCLEON
X_NUC_50 NODE_50 0 NUCLEON
X_NUC_51 NODE_51 0 NUCLEON
X_NUC_52 NODE_52 0 NUCLEON
X_NUC_53 NODE_53 0 NUCLEON
X_NUC_54 NODE_54 0 NUCLEON
X_NUC_55 NODE_55 0 NUCLEON
X_NUC_56 NODE_56 0 NUCLEON
X_NUC_57 NODE_57 0 NUCLEON
X_NUC_58 NODE_58 0 NUCLEON
X_NUC_59 NODE_59 0 NUCLEON
X_NUC_60 NODE_60 0 NUCLEON
X_NUC_61 NODE_61 0 NUCLEON
X_NUC_62 NODE_62 0 NUCLEON
X_NUC_63 NODE_63 0 NUCLEON
X_NUC_64 NODE_64 0 NUCLEON
X_NUC_65 NODE_65 0 NUCLEON
X_NUC_66 NODE_66 0 NUCLEON
X_NUC_67 NODE_67 0 NUCLEON
X_NUC_68 NODE_68 0 NUCLEON
X_NUC_69 NODE_69 0 NUCLEON
X_NUC_70 NODE_70 0 NUCLEON
X_NUC_71 NODE_71 0 NUCLEON
X_NUC_72 NODE_72 0 NUCLEON
X_NUC_73 NODE_73 0 NUCLEON
X_NUC_74 NODE_74 0 NUCLEON
X_NUC_75 NODE_75 0 NUCLEON
X_NUC_76 NODE_76 0 NUCLEON
X_NUC_77 NODE_77 0 NUCLEON
X_NUC_78 NODE_78 0 NUCLEON
X_NUC_79 NODE_79 0 NUCLEON
X_NUC_80 NODE_80 0 NUCLEON
X_NUC_81 NODE_81 0 NUCLEON
X_NUC_82 NODE_82 0 NUCLEON
X_NUC_83 NODE_83 0 NUCLEON
X_NUC_84 NODE_84 0 NUCLEON
X_NUC_85 NODE_85 0 NUCLEON
X_NUC_86 NODE_86 0 NUCLEON
X_NUC_87 NODE_87 0 NUCLEON
X_NUC_88 NODE_88 0 NUCLEON
X_NUC_89 NODE_89 0 NUCLEON
X_NUC_90 NODE_90 0 NUCLEON
X_NUC_91 NODE_91 0 NUCLEON
X_NUC_92 NODE_92 0 NUCLEON
X_NUC_93 NODE_93 0 NUCLEON
X_NUC_94 NODE_94 0 NUCLEON
X_NUC_95 NODE_95 0 NUCLEON
X_NUC_96 NODE_96 0 NUCLEON
X_NUC_97 NODE_97 0 NUCLEON
X_NUC_98 NODE_98 0 NUCLEON
X_NUC_99 NODE_99 0 NUCLEON
X_NUC_100 NODE_100 0 NUCLEON
X_NUC_101 NODE_101 0 NUCLEON
X_NUC_102 NODE_102 0 NUCLEON
X_NUC_103 NODE_103 0 NUCLEON
X_NUC_104 NODE_104 0 NUCLEON
X_NUC_105 NODE_105 0 NUCLEON
X_NUC_106 NODE_106 0 NUCLEON
X_NUC_107 NODE_107 0 NUCLEON
X_NUC_108 NODE_108 0 NUCLEON
X_NUC_109 NODE_109 0 NUCLEON
X_NUC_110 NODE_110 0 NUCLEON
X_NUC_111 NODE_111 0 NUCLEON
X_NUC_112 NODE_112 0 NUCLEON
X_NUC_113 NODE_113 0 NUCLEON
X_NUC_114 NODE_114 0 NUCLEON
X_NUC_115 NODE_115 0 NUCLEON
X_NUC_116 NODE_116 0 NUCLEON
X_NUC_117 NODE_117 0 NUCLEON
X_NUC_118 NODE_118 0 NUCLEON
X_NUC_119 NODE_119 0 NUCLEON
X_NUC_120 NODE_120 0 NUCLEON
X_NUC_121 NODE_121 0 NUCLEON
X_NUC_122 NODE_122 0 NUCLEON
X_NUC_123 NODE_123 0 NUCLEON
X_NUC_124 NODE_124 0 NUCLEON
X_NUC_125 NODE_125 0 NUCLEON
X_NUC_126 NODE_126 0 NUCLEON
X_NUC_127 NODE_127 0 NUCLEON
X_NUC_128 NODE_128 0 NUCLEON
X_NUC_129 NODE_129 0 NUCLEON
X_NUC_130 NODE_130 0 NUCLEON
X_NUC_131 NODE_131 0 NUCLEON
X_NUC_132 NODE_132 0 NUCLEON
X_NUC_133 NODE_133 0 NUCLEON
X_NUC_134 NODE_134 0 NUCLEON
X_NUC_135 NODE_135 0 NUCLEON
X_NUC_136 NODE_136 0 NUCLEON
X_NUC_137 NODE_137 0 NUCLEON
X_NUC_138 NODE_138 0 NUCLEON
X_NUC_139 NODE_139 0 NUCLEON
X_NUC_140 NODE_140 0 NUCLEON
X_NUC_141 NODE_141 0 NUCLEON
X_NUC_142 NODE_142 0 NUCLEON
X_NUC_143 NODE_143 0 NUCLEON
X_NUC_144 NODE_144 0 NUCLEON
X_NUC_145 NODE_145 0 NUCLEON
X_NUC_146 NODE_146 0 NUCLEON
X_NUC_147 NODE_147 0 NUCLEON
X_NUC_148 NODE_148 0 NUCLEON
X_NUC_149 NODE_149 0 NUCLEON
X_NUC_150 NODE_150 0 NUCLEON
X_NUC_151 NODE_151 0 NUCLEON
X_NUC_152 NODE_152 0 NUCLEON
X_NUC_153 NODE_153 0 NUCLEON
X_NUC_154 NODE_154 0 NUCLEON
X_NUC_155 NODE_155 0 NUCLEON
X_NUC_156 NODE_156 0 NUCLEON
X_NUC_157 NODE_157 0 NUCLEON
X_NUC_158 NODE_158 0 NUCLEON
X_NUC_159 NODE_159 0 NUCLEON
X_NUC_160 NODE_160 0 NUCLEON
X_NUC_161 NODE_161 0 NUCLEON
X_NUC_162 NODE_162 0 NUCLEON
X_NUC_163 NODE_163 0 NUCLEON
X_NUC_164 NODE_164 0 NUCLEON
X_NUC_165 NODE_165 0 NUCLEON
X_NUC_166 NODE_166 0 NUCLEON
X_NUC_167 NODE_167 0 NUCLEON
X_NUC_168 NODE_168 0 NUCLEON
X_NUC_169 NODE_169 0 NUCLEON
X_NUC_170 NODE_170 0 NUCLEON
X_NUC_171 NODE_171 0 NUCLEON
X_NUC_172 NODE_172 0 NUCLEON
X_NUC_173 NODE_173 0 NUCLEON
X_NUC_174 NODE_174 0 NUCLEON
X_NUC_175 NODE_175 0 NUCLEON
X_NUC_176 NODE_176 0 NUCLEON
X_NUC_177 NODE_177 0 NUCLEON
X_NUC_178 NODE_178 0 NUCLEON
X_NUC_179 NODE_179 0 NUCLEON
X_NUC_180 NODE_180 0 NUCLEON
X_NUC_181 NODE_181 0 NUCLEON
X_NUC_182 NODE_182 0 NUCLEON
X_NUC_183 NODE_183 0 NUCLEON
X_NUC_184 NODE_184 0 NUCLEON
X_NUC_185 NODE_185 0 NUCLEON
X_NUC_186 NODE_186 0 NUCLEON
X_NUC_187 NODE_187 0 NUCLEON
X_NUC_188 NODE_188 0 NUCLEON
X_NUC_189 NODE_189 0 NUCLEON
X_NUC_190 NODE_190 0 NUCLEON
X_NUC_191 NODE_191 0 NUCLEON
X_NUC_192 NODE_192 0 NUCLEON
X_NUC_193 NODE_193 0 NUCLEON
X_NUC_194 NODE_194 0 NUCLEON
X_NUC_195 NODE_195 0 NUCLEON
X_NUC_196 NODE_196 0 NUCLEON
X_NUC_197 NODE_197 0 NUCLEON
X_NUC_198 NODE_198 0 NUCLEON
X_NUC_199 NODE_199 0 NUCLEON
X_NUC_200 NODE_200 0 NUCLEON
X_NUC_201 NODE_201 0 NUCLEON
X_NUC_202 NODE_202 0 NUCLEON
X_NUC_203 NODE_203 0 NUCLEON
X_NUC_204 NODE_204 0 NUCLEON
X_NUC_205 NODE_205 0 NUCLEON
X_NUC_206 NODE_206 0 NUCLEON
X_NUC_207 NODE_207 0 NUCLEON
X_NUC_208 NODE_208 0 NUCLEON
X_NUC_209 NODE_209 0 NUCLEON
X_NUC_210 NODE_210 0 NUCLEON
X_NUC_211 NODE_211 0 NUCLEON
X_NUC_212 NODE_212 0 NUCLEON
X_NUC_213 NODE_213 0 NUCLEON
X_NUC_214 NODE_214 0 NUCLEON
X_NUC_215 NODE_215 0 NUCLEON
X_NUC_216 NODE_216 0 NUCLEON
X_NUC_217 NODE_217 0 NUCLEON
X_NUC_218 NODE_218 0 NUCLEON
X_NUC_219 NODE_219 0 NUCLEON
X_NUC_220 NODE_220 0 NUCLEON
X_NUC_221 NODE_221 0 NUCLEON
X_NUC_222 NODE_222 0 NUCLEON


* -----------------------------------------------------------------
* SPATIAL MUTUAL INDUCTANCE (K-FACTORS)
* -----------------------------------------------------------------
K_1 X_NUC_1.L_CORE X_NUC_2.L_CORE 0.207973
K_2 X_NUC_1.L_CORE X_NUC_3.L_CORE 0.207973
K_3 X_NUC_1.L_CORE X_NUC_4.L_CORE 0.207973
K_4 X_NUC_1.L_CORE X_NUC_5.L_CORE 0.004763
K_5 X_NUC_1.L_CORE X_NUC_6.L_CORE 0.004662
K_6 X_NUC_1.L_CORE X_NUC_7.L_CORE 0.004689
K_7 X_NUC_1.L_CORE X_NUC_8.L_CORE 0.004721
K_8 X_NUC_1.L_CORE X_NUC_9.L_CORE 0.005145
K_9 X_NUC_1.L_CORE X_NUC_10.L_CORE 0.005197
K_10 X_NUC_1.L_CORE X_NUC_11.L_CORE 0.005097
K_11 X_NUC_1.L_CORE X_NUC_12.L_CORE 0.005211
K_12 X_NUC_1.L_CORE X_NUC_13.L_CORE 0.005529
K_13 X_NUC_1.L_CORE X_NUC_14.L_CORE 0.005458
K_14 X_NUC_1.L_CORE X_NUC_15.L_CORE 0.005522
K_15 X_NUC_1.L_CORE X_NUC_16.L_CORE 0.005404
K_16 X_NUC_1.L_CORE X_NUC_17.L_CORE 0.003082
K_17 X_NUC_1.L_CORE X_NUC_18.L_CORE 0.003055
K_18 X_NUC_1.L_CORE X_NUC_19.L_CORE 0.003044
K_19 X_NUC_1.L_CORE X_NUC_20.L_CORE 0.003079
K_20 X_NUC_1.L_CORE X_NUC_21.L_CORE 0.004718
K_21 X_NUC_1.L_CORE X_NUC_22.L_CORE 0.004817
K_22 X_NUC_1.L_CORE X_NUC_23.L_CORE 0.004733
K_23 X_NUC_1.L_CORE X_NUC_24.L_CORE 0.004735
K_24 X_NUC_1.L_CORE X_NUC_25.L_CORE 0.003076
K_25 X_NUC_1.L_CORE X_NUC_26.L_CORE 0.003035
K_26 X_NUC_1.L_CORE X_NUC_27.L_CORE 0.003050
K_27 X_NUC_1.L_CORE X_NUC_28.L_CORE 0.003039
K_28 X_NUC_1.L_CORE X_NUC_29.L_CORE 0.002779
K_29 X_NUC_1.L_CORE X_NUC_30.L_CORE 0.002782
K_30 X_NUC_1.L_CORE X_NUC_31.L_CORE 0.002754
K_31 X_NUC_1.L_CORE X_NUC_32.L_CORE 0.002789
K_32 X_NUC_1.L_CORE X_NUC_33.L_CORE 0.003690
K_33 X_NUC_1.L_CORE X_NUC_34.L_CORE 0.003707
K_34 X_NUC_1.L_CORE X_NUC_35.L_CORE 0.003700
K_35 X_NUC_1.L_CORE X_NUC_36.L_CORE 0.003648
K_36 X_NUC_1.L_CORE X_NUC_37.L_CORE 0.002340
K_37 X_NUC_1.L_CORE X_NUC_38.L_CORE 0.002318
K_38 X_NUC_1.L_CORE X_NUC_39.L_CORE 0.002317
K_39 X_NUC_1.L_CORE X_NUC_40.L_CORE 0.002327
K_40 X_NUC_1.L_CORE X_NUC_41.L_CORE 0.002834
K_41 X_NUC_1.L_CORE X_NUC_42.L_CORE 0.002861
K_42 X_NUC_1.L_CORE X_NUC_43.L_CORE 0.002824
K_43 X_NUC_1.L_CORE X_NUC_44.L_CORE 0.002843
K_44 X_NUC_1.L_CORE X_NUC_45.L_CORE 0.002633
K_45 X_NUC_1.L_CORE X_NUC_46.L_CORE 0.002614
K_46 X_NUC_1.L_CORE X_NUC_47.L_CORE 0.002622
K_47 X_NUC_1.L_CORE X_NUC_48.L_CORE 0.002601
K_48 X_NUC_1.L_CORE X_NUC_49.L_CORE 0.002113
K_49 X_NUC_1.L_CORE X_NUC_50.L_CORE 0.002106
K_50 X_NUC_1.L_CORE X_NUC_51.L_CORE 0.002094
K_51 X_NUC_1.L_CORE X_NUC_52.L_CORE 0.002111
K_52 X_NUC_1.L_CORE X_NUC_53.L_CORE 0.002769
K_53 X_NUC_1.L_CORE X_NUC_54.L_CORE 0.002794
K_54 X_NUC_1.L_CORE X_NUC_55.L_CORE 0.002771
K_55 X_NUC_1.L_CORE X_NUC_56.L_CORE 0.002758
K_56 X_NUC_1.L_CORE X_NUC_57.L_CORE 0.002060
K_57 X_NUC_1.L_CORE X_NUC_58.L_CORE 0.002043
K_58 X_NUC_1.L_CORE X_NUC_59.L_CORE 0.002044
K_59 X_NUC_1.L_CORE X_NUC_60.L_CORE 0.002044
K_60 X_NUC_1.L_CORE X_NUC_61.L_CORE 0.002121
K_61 X_NUC_1.L_CORE X_NUC_62.L_CORE 0.002128
K_62 X_NUC_1.L_CORE X_NUC_63.L_CORE 0.002108
K_63 X_NUC_1.L_CORE X_NUC_64.L_CORE 0.002124
K_64 X_NUC_1.L_CORE X_NUC_65.L_CORE 0.002351
K_65 X_NUC_1.L_CORE X_NUC_66.L_CORE 0.002349
K_66 X_NUC_1.L_CORE X_NUC_67.L_CORE 0.002347
K_67 X_NUC_1.L_CORE X_NUC_68.L_CORE 0.002328
K_68 X_NUC_1.L_CORE X_NUC_69.L_CORE 0.001815
K_69 X_NUC_1.L_CORE X_NUC_70.L_CORE 0.001806
K_70 X_NUC_1.L_CORE X_NUC_71.L_CORE 0.001800
K_71 X_NUC_1.L_CORE X_NUC_72.L_CORE 0.001809
K_72 X_NUC_1.L_CORE X_NUC_73.L_CORE 0.002180
K_73 X_NUC_1.L_CORE X_NUC_74.L_CORE 0.002196
K_74 X_NUC_1.L_CORE X_NUC_75.L_CORE 0.002175
K_75 X_NUC_1.L_CORE X_NUC_76.L_CORE 0.002178
K_76 X_NUC_1.L_CORE X_NUC_77.L_CORE 0.001921
K_77 X_NUC_1.L_CORE X_NUC_78.L_CORE 0.001909
K_78 X_NUC_1.L_CORE X_NUC_79.L_CORE 0.001910
K_79 X_NUC_1.L_CORE X_NUC_80.L_CORE 0.001903
K_80 X_NUC_1.L_CORE X_NUC_81.L_CORE 0.001762
K_81 X_NUC_1.L_CORE X_NUC_82.L_CORE 0.001761
K_82 X_NUC_1.L_CORE X_NUC_83.L_CORE 0.001750
K_83 X_NUC_1.L_CORE X_NUC_84.L_CORE 0.001761
K_84 X_NUC_1.L_CORE X_NUC_85.L_CORE 0.002075
K_85 X_NUC_1.L_CORE X_NUC_86.L_CORE 0.002082
K_86 X_NUC_1.L_CORE X_NUC_87.L_CORE 0.002072
K_87 X_NUC_1.L_CORE X_NUC_88.L_CORE 0.002062
K_88 X_NUC_1.L_CORE X_NUC_89.L_CORE 0.001666
K_89 X_NUC_1.L_CORE X_NUC_90.L_CORE 0.001657
K_90 X_NUC_1.L_CORE X_NUC_91.L_CORE 0.001654
K_91 X_NUC_1.L_CORE X_NUC_92.L_CORE 0.001657
K_92 X_NUC_1.L_CORE X_NUC_93.L_CORE 0.001802
K_93 X_NUC_1.L_CORE X_NUC_94.L_CORE 0.001809
K_94 X_NUC_1.L_CORE X_NUC_95.L_CORE 0.001794
K_95 X_NUC_1.L_CORE X_NUC_96.L_CORE 0.001801
K_96 X_NUC_1.L_CORE X_NUC_97.L_CORE 0.001814
K_97 X_NUC_1.L_CORE X_NUC_98.L_CORE 0.001809
K_98 X_NUC_1.L_CORE X_NUC_99.L_CORE 0.001807
K_99 X_NUC_1.L_CORE X_NUC_100.L_CORE 0.001798
K_100 X_NUC_1.L_CORE X_NUC_101.L_CORE 0.001566
K_101 X_NUC_1.L_CORE X_NUC_102.L_CORE 0.001562
K_102 X_NUC_1.L_CORE X_NUC_103.L_CORE 0.001555
K_103 X_NUC_1.L_CORE X_NUC_104.L_CORE 0.001562
K_104 X_NUC_1.L_CORE X_NUC_105.L_CORE 0.001807
K_105 X_NUC_1.L_CORE X_NUC_106.L_CORE 0.001816
K_106 X_NUC_1.L_CORE X_NUC_107.L_CORE 0.001803
K_107 X_NUC_1.L_CORE X_NUC_108.L_CORE 0.001801
K_108 X_NUC_1.L_CORE X_NUC_109.L_CORE 0.001584
K_109 X_NUC_1.L_CORE X_NUC_110.L_CORE 0.001576
K_110 X_NUC_1.L_CORE X_NUC_111.L_CORE 0.001574
K_111 X_NUC_1.L_CORE X_NUC_112.L_CORE 0.001572
K_112 X_NUC_1.L_CORE X_NUC_113.L_CORE 0.001564
K_113 X_NUC_1.L_CORE X_NUC_114.L_CORE 0.001565
K_114 X_NUC_1.L_CORE X_NUC_115.L_CORE 0.001555
K_115 X_NUC_1.L_CORE X_NUC_116.L_CORE 0.001562
K_116 X_NUC_1.L_CORE X_NUC_117.L_CORE 0.001690
K_117 X_NUC_1.L_CORE X_NUC_118.L_CORE 0.001691
K_118 X_NUC_1.L_CORE X_NUC_119.L_CORE 0.001685
K_119 X_NUC_1.L_CORE X_NUC_120.L_CORE 0.001679
K_120 X_NUC_1.L_CORE X_NUC_121.L_CORE 0.001457
K_121 X_NUC_1.L_CORE X_NUC_122.L_CORE 0.001452
K_122 X_NUC_1.L_CORE X_NUC_123.L_CORE 0.001447
K_123 X_NUC_1.L_CORE X_NUC_124.L_CORE 0.001450
K_124 X_NUC_1.L_CORE X_NUC_125.L_CORE 0.001584
K_125 X_NUC_1.L_CORE X_NUC_126.L_CORE 0.001589
K_126 X_NUC_1.L_CORE X_NUC_127.L_CORE 0.001578
K_127 X_NUC_1.L_CORE X_NUC_128.L_CORE 0.001580
K_128 X_NUC_1.L_CORE X_NUC_129.L_CORE 0.001519
K_129 X_NUC_1.L_CORE X_NUC_130.L_CORE 0.001515
K_130 X_NUC_1.L_CORE X_NUC_131.L_CORE 0.001512
K_131 X_NUC_1.L_CORE X_NUC_132.L_CORE 0.001509
K_132 X_NUC_1.L_CORE X_NUC_133.L_CORE 0.001418
K_133 X_NUC_1.L_CORE X_NUC_134.L_CORE 0.001417
K_134 X_NUC_1.L_CORE X_NUC_135.L_CORE 0.001409
K_135 X_NUC_1.L_CORE X_NUC_136.L_CORE 0.001414
K_136 X_NUC_1.L_CORE X_NUC_137.L_CORE 0.001545
K_137 X_NUC_1.L_CORE X_NUC_138.L_CORE 0.001548
K_138 X_NUC_1.L_CORE X_NUC_139.L_CORE 0.001540
K_139 X_NUC_1.L_CORE X_NUC_140.L_CORE 0.001538
K_140 X_NUC_1.L_CORE X_NUC_141.L_CORE 0.001393
K_141 X_NUC_1.L_CORE X_NUC_142.L_CORE 0.001389
K_142 X_NUC_1.L_CORE X_NUC_143.L_CORE 0.001385
K_143 X_NUC_1.L_CORE X_NUC_144.L_CORE 0.001386
K_144 X_NUC_1.L_CORE X_NUC_145.L_CORE 0.001420
K_145 X_NUC_1.L_CORE X_NUC_146.L_CORE 0.001422
K_146 X_NUC_1.L_CORE X_NUC_147.L_CORE 0.001413
K_147 X_NUC_1.L_CORE X_NUC_148.L_CORE 0.001417
K_148 X_NUC_1.L_CORE X_NUC_149.L_CORE 0.001442
K_149 X_NUC_1.L_CORE X_NUC_150.L_CORE 0.001441
K_150 X_NUC_1.L_CORE X_NUC_151.L_CORE 0.001436
K_151 X_NUC_1.L_CORE X_NUC_152.L_CORE 0.001433
K_152 X_NUC_1.L_CORE X_NUC_153.L_CORE 0.001335
K_153 X_NUC_1.L_CORE X_NUC_154.L_CORE 0.001332
K_154 X_NUC_1.L_CORE X_NUC_155.L_CORE 0.001327
K_155 X_NUC_1.L_CORE X_NUC_156.L_CORE 0.001329
K_156 X_NUC_1.L_CORE X_NUC_157.L_CORE 0.001402
K_157 X_NUC_1.L_CORE X_NUC_158.L_CORE 0.001404
K_158 X_NUC_1.L_CORE X_NUC_159.L_CORE 0.001396
K_159 X_NUC_1.L_CORE X_NUC_160.L_CORE 0.001397
K_160 X_NUC_1.L_CORE X_NUC_161.L_CORE 0.001342
K_161 X_NUC_1.L_CORE X_NUC_162.L_CORE 0.001340
K_162 X_NUC_1.L_CORE X_NUC_163.L_CORE 0.001336
K_163 X_NUC_1.L_CORE X_NUC_164.L_CORE 0.001335
K_164 X_NUC_1.L_CORE X_NUC_165.L_CORE 0.001318
K_165 X_NUC_1.L_CORE X_NUC_166.L_CORE 0.001318
K_166 X_NUC_1.L_CORE X_NUC_167.L_CORE 0.001311
K_167 X_NUC_1.L_CORE X_NUC_168.L_CORE 0.001314
K_168 X_NUC_1.L_CORE X_NUC_169.L_CORE 0.001332
K_169 X_NUC_1.L_CORE X_NUC_170.L_CORE 0.001332
K_170 X_NUC_1.L_CORE X_NUC_171.L_CORE 0.001326
K_171 X_NUC_1.L_CORE X_NUC_172.L_CORE 0.001326
K_172 X_NUC_1.L_CORE X_NUC_173.L_CORE 0.033753
K_173 X_NUC_1.L_CORE X_NUC_174.L_CORE 0.004709
K_174 X_NUC_1.L_CORE X_NUC_175.L_CORE 0.005236
K_175 X_NUC_1.L_CORE X_NUC_176.L_CORE 0.005664
K_176 X_NUC_1.L_CORE X_NUC_177.L_CORE 0.003103
K_177 X_NUC_1.L_CORE X_NUC_178.L_CORE 0.005002
K_178 X_NUC_1.L_CORE X_NUC_179.L_CORE 0.003119
K_179 X_NUC_1.L_CORE X_NUC_180.L_CORE 0.002837
K_180 X_NUC_1.L_CORE X_NUC_181.L_CORE 0.003895
K_181 X_NUC_1.L_CORE X_NUC_182.L_CORE 0.002369
K_182 X_NUC_1.L_CORE X_NUC_183.L_CORE 0.002954
K_183 X_NUC_1.L_CORE X_NUC_184.L_CORE 0.002714
K_184 X_NUC_1.L_CORE X_NUC_185.L_CORE 0.002150
K_185 X_NUC_1.L_CORE X_NUC_186.L_CORE 0.002930
K_186 X_NUC_1.L_CORE X_NUC_187.L_CORE 0.002098
K_187 X_NUC_1.L_CORE X_NUC_188.L_CORE 0.002186
K_188 X_NUC_1.L_CORE X_NUC_189.L_CORE 0.002458
K_189 X_NUC_1.L_CORE X_NUC_190.L_CORE 0.001845
K_190 X_NUC_1.L_CORE X_NUC_191.L_CORE 0.002288
K_191 X_NUC_1.L_CORE X_NUC_192.L_CORE 0.001974
K_192 X_NUC_1.L_CORE X_NUC_193.L_CORE 0.001803
K_193 X_NUC_1.L_CORE X_NUC_194.L_CORE 0.002187
K_194 X_NUC_1.L_CORE X_NUC_195.L_CORE 0.001697
K_195 X_NUC_1.L_CORE X_NUC_196.L_CORE 0.001871
K_196 X_NUC_1.L_CORE X_NUC_197.L_CORE 0.001885
K_197 X_NUC_1.L_CORE X_NUC_198.L_CORE 0.001595
K_198 X_NUC_1.L_CORE X_NUC_199.L_CORE 0.001904
K_199 X_NUC_1.L_CORE X_NUC_200.L_CORE 0.001622
K_200 X_NUC_1.L_CORE X_NUC_201.L_CORE 0.001608
K_201 X_NUC_1.L_CORE X_NUC_202.L_CORE 0.001776
K_202 X_NUC_1.L_CORE X_NUC_203.L_CORE 0.001481
K_203 X_NUC_1.L_CORE X_NUC_204.L_CORE 0.001656
K_204 X_NUC_1.L_CORE X_NUC_205.L_CORE 0.001572
K_205 X_NUC_1.L_CORE X_NUC_206.L_CORE 0.001446
K_206 X_NUC_1.L_CORE X_NUC_207.L_CORE 0.001632
K_207 X_NUC_1.L_CORE X_NUC_208.L_CORE 0.001420
K_208 X_NUC_1.L_CORE X_NUC_209.L_CORE 0.001469
K_209 X_NUC_1.L_CORE X_NUC_210.L_CORE 0.001512
K_210 X_NUC_1.L_CORE X_NUC_211.L_CORE 0.001351
K_211 X_NUC_1.L_CORE X_NUC_212.L_CORE 0.001480
K_212 X_NUC_1.L_CORE X_NUC_213.L_CORE 0.001379
K_213 X_NUC_1.L_CORE X_NUC_214.L_CORE 0.001343
K_214 X_NUC_1.L_CORE X_NUC_215.L_CORE 0.001426
K_215 X_NUC_1.L_CORE X_NUC_216.L_CORE 0.001297
K_216 X_NUC_1.L_CORE X_NUC_217.L_CORE 0.001350
K_217 X_NUC_1.L_CORE X_NUC_218.L_CORE 0.001333
K_218 X_NUC_1.L_CORE X_NUC_219.L_CORE 0.001268
K_219 X_NUC_1.L_CORE X_NUC_220.L_CORE 0.001321
K_220 X_NUC_1.L_CORE X_NUC_221.L_CORE 0.001263
K_221 X_NUC_1.L_CORE X_NUC_222.L_CORE 0.001260
K_222 X_NUC_2.L_CORE X_NUC_3.L_CORE 0.207973
K_223 X_NUC_2.L_CORE X_NUC_4.L_CORE 0.207973
K_224 X_NUC_2.L_CORE X_NUC_5.L_CORE 0.004869
K_225 X_NUC_2.L_CORE X_NUC_6.L_CORE 0.004763
K_226 X_NUC_2.L_CORE X_NUC_7.L_CORE 0.004791
K_227 X_NUC_2.L_CORE X_NUC_8.L_CORE 0.004825
K_228 X_NUC_2.L_CORE X_NUC_9.L_CORE 0.005093
K_229 X_NUC_2.L_CORE X_NUC_10.L_CORE 0.005145
K_230 X_NUC_2.L_CORE X_NUC_11.L_CORE 0.005047
K_231 X_NUC_2.L_CORE X_NUC_12.L_CORE 0.005158
K_232 X_NUC_2.L_CORE X_NUC_13.L_CORE 0.005598
K_233 X_NUC_2.L_CORE X_NUC_14.L_CORE 0.005529
K_234 X_NUC_2.L_CORE X_NUC_15.L_CORE 0.005593
K_235 X_NUC_2.L_CORE X_NUC_16.L_CORE 0.005471
K_236 X_NUC_2.L_CORE X_NUC_17.L_CORE 0.003109
K_237 X_NUC_2.L_CORE X_NUC_18.L_CORE 0.003082
K_238 X_NUC_2.L_CORE X_NUC_19.L_CORE 0.003070
K_239 X_NUC_2.L_CORE X_NUC_20.L_CORE 0.003106
K_240 X_NUC_2.L_CORE X_NUC_21.L_CORE 0.004623
K_241 X_NUC_2.L_CORE X_NUC_22.L_CORE 0.004718
K_242 X_NUC_2.L_CORE X_NUC_23.L_CORE 0.004638
K_243 X_NUC_2.L_CORE X_NUC_24.L_CORE 0.004639
K_244 X_NUC_2.L_CORE X_NUC_25.L_CORE 0.003118
K_245 X_NUC_2.L_CORE X_NUC_26.L_CORE 0.003076
K_246 X_NUC_2.L_CORE X_NUC_27.L_CORE 0.003091
K_247 X_NUC_2.L_CORE X_NUC_28.L_CORE 0.003080
K_248 X_NUC_2.L_CORE X_NUC_29.L_CORE 0.002776
K_249 X_NUC_2.L_CORE X_NUC_30.L_CORE 0.002779
K_250 X_NUC_2.L_CORE X_NUC_31.L_CORE 0.002751
K_251 X_NUC_2.L_CORE X_NUC_32.L_CORE 0.002786
K_252 X_NUC_2.L_CORE X_NUC_33.L_CORE 0.003672
K_253 X_NUC_2.L_CORE X_NUC_34.L_CORE 0.003690
K_254 X_NUC_2.L_CORE X_NUC_35.L_CORE 0.003683
K_255 X_NUC_2.L_CORE X_NUC_36.L_CORE 0.003631
K_256 X_NUC_2.L_CORE X_NUC_37.L_CORE 0.002362
K_257 X_NUC_2.L_CORE X_NUC_38.L_CORE 0.002340
K_258 X_NUC_2.L_CORE X_NUC_39.L_CORE 0.002338
K_259 X_NUC_2.L_CORE X_NUC_40.L_CORE 0.002349
K_260 X_NUC_2.L_CORE X_NUC_41.L_CORE 0.002806
K_261 X_NUC_2.L_CORE X_NUC_42.L_CORE 0.002834
K_262 X_NUC_2.L_CORE X_NUC_43.L_CORE 0.002797
K_263 X_NUC_2.L_CORE X_NUC_44.L_CORE 0.002815
K_264 X_NUC_2.L_CORE X_NUC_45.L_CORE 0.002652
K_265 X_NUC_2.L_CORE X_NUC_46.L_CORE 0.002633
K_266 X_NUC_2.L_CORE X_NUC_47.L_CORE 0.002641
K_267 X_NUC_2.L_CORE X_NUC_48.L_CORE 0.002620
K_268 X_NUC_2.L_CORE X_NUC_49.L_CORE 0.002119
K_269 X_NUC_2.L_CORE X_NUC_50.L_CORE 0.002113
K_270 X_NUC_2.L_CORE X_NUC_51.L_CORE 0.002100
K_271 X_NUC_2.L_CORE X_NUC_52.L_CORE 0.002118
K_272 X_NUC_2.L_CORE X_NUC_53.L_CORE 0.002744
K_273 X_NUC_2.L_CORE X_NUC_54.L_CORE 0.002769
K_274 X_NUC_2.L_CORE X_NUC_55.L_CORE 0.002747
K_275 X_NUC_2.L_CORE X_NUC_56.L_CORE 0.002733
K_276 X_NUC_2.L_CORE X_NUC_57.L_CORE 0.002078
K_277 X_NUC_2.L_CORE X_NUC_58.L_CORE 0.002060
K_278 X_NUC_2.L_CORE X_NUC_59.L_CORE 0.002062
K_279 X_NUC_2.L_CORE X_NUC_60.L_CORE 0.002062
K_280 X_NUC_2.L_CORE X_NUC_61.L_CORE 0.002113
K_281 X_NUC_2.L_CORE X_NUC_62.L_CORE 0.002121
K_282 X_NUC_2.L_CORE X_NUC_63.L_CORE 0.002100
K_283 X_NUC_2.L_CORE X_NUC_64.L_CORE 0.002116
K_284 X_NUC_2.L_CORE X_NUC_65.L_CORE 0.002352
K_285 X_NUC_2.L_CORE X_NUC_66.L_CORE 0.002351
K_286 X_NUC_2.L_CORE X_NUC_67.L_CORE 0.002349
K_287 X_NUC_2.L_CORE X_NUC_68.L_CORE 0.002330
K_288 X_NUC_2.L_CORE X_NUC_69.L_CORE 0.001825
K_289 X_NUC_2.L_CORE X_NUC_70.L_CORE 0.001815
K_290 X_NUC_2.L_CORE X_NUC_71.L_CORE 0.001809
K_291 X_NUC_2.L_CORE X_NUC_72.L_CORE 0.001818
K_292 X_NUC_2.L_CORE X_NUC_73.L_CORE 0.002164
K_293 X_NUC_2.L_CORE X_NUC_74.L_CORE 0.002180
K_294 X_NUC_2.L_CORE X_NUC_75.L_CORE 0.002160
K_295 X_NUC_2.L_CORE X_NUC_76.L_CORE 0.002162
K_296 X_NUC_2.L_CORE X_NUC_77.L_CORE 0.001932
K_297 X_NUC_2.L_CORE X_NUC_78.L_CORE 0.001921
K_298 X_NUC_2.L_CORE X_NUC_79.L_CORE 0.001922
K_299 X_NUC_2.L_CORE X_NUC_80.L_CORE 0.001915
K_300 X_NUC_2.L_CORE X_NUC_81.L_CORE 0.001763
K_301 X_NUC_2.L_CORE X_NUC_82.L_CORE 0.001762
K_302 X_NUC_2.L_CORE X_NUC_83.L_CORE 0.001750
K_303 X_NUC_2.L_CORE X_NUC_84.L_CORE 0.001762
K_304 X_NUC_2.L_CORE X_NUC_85.L_CORE 0.002067
K_305 X_NUC_2.L_CORE X_NUC_86.L_CORE 0.002075
K_306 X_NUC_2.L_CORE X_NUC_87.L_CORE 0.002065
K_307 X_NUC_2.L_CORE X_NUC_88.L_CORE 0.002055
K_308 X_NUC_2.L_CORE X_NUC_89.L_CORE 0.001676
K_309 X_NUC_2.L_CORE X_NUC_90.L_CORE 0.001666
K_310 X_NUC_2.L_CORE X_NUC_91.L_CORE 0.001663
K_311 X_NUC_2.L_CORE X_NUC_92.L_CORE 0.001666
K_312 X_NUC_2.L_CORE X_NUC_93.L_CORE 0.001795
K_313 X_NUC_2.L_CORE X_NUC_94.L_CORE 0.001802
K_314 X_NUC_2.L_CORE X_NUC_95.L_CORE 0.001787
K_315 X_NUC_2.L_CORE X_NUC_96.L_CORE 0.001794
K_316 X_NUC_2.L_CORE X_NUC_97.L_CORE 0.001818
K_317 X_NUC_2.L_CORE X_NUC_98.L_CORE 0.001814
K_318 X_NUC_2.L_CORE X_NUC_99.L_CORE 0.001812
K_319 X_NUC_2.L_CORE X_NUC_100.L_CORE 0.001803
K_320 X_NUC_2.L_CORE X_NUC_101.L_CORE 0.001570
K_321 X_NUC_2.L_CORE X_NUC_102.L_CORE 0.001566
K_322 X_NUC_2.L_CORE X_NUC_103.L_CORE 0.001559
K_323 X_NUC_2.L_CORE X_NUC_104.L_CORE 0.001566
K_324 X_NUC_2.L_CORE X_NUC_105.L_CORE 0.001799
K_325 X_NUC_2.L_CORE X_NUC_106.L_CORE 0.001807
K_326 X_NUC_2.L_CORE X_NUC_107.L_CORE 0.001795
K_327 X_NUC_2.L_CORE X_NUC_108.L_CORE 0.001793
K_328 X_NUC_2.L_CORE X_NUC_109.L_CORE 0.001591
K_329 X_NUC_2.L_CORE X_NUC_110.L_CORE 0.001584
K_330 X_NUC_2.L_CORE X_NUC_111.L_CORE 0.001582
K_331 X_NUC_2.L_CORE X_NUC_112.L_CORE 0.001580
K_332 X_NUC_2.L_CORE X_NUC_113.L_CORE 0.001562
K_333 X_NUC_2.L_CORE X_NUC_114.L_CORE 0.001564
K_334 X_NUC_2.L_CORE X_NUC_115.L_CORE 0.001553
K_335 X_NUC_2.L_CORE X_NUC_116.L_CORE 0.001560
K_336 X_NUC_2.L_CORE X_NUC_117.L_CORE 0.001689
K_337 X_NUC_2.L_CORE X_NUC_118.L_CORE 0.001690
K_338 X_NUC_2.L_CORE X_NUC_119.L_CORE 0.001684
K_339 X_NUC_2.L_CORE X_NUC_120.L_CORE 0.001678
K_340 X_NUC_2.L_CORE X_NUC_121.L_CORE 0.001462
K_341 X_NUC_2.L_CORE X_NUC_122.L_CORE 0.001457
K_342 X_NUC_2.L_CORE X_NUC_123.L_CORE 0.001452
K_343 X_NUC_2.L_CORE X_NUC_124.L_CORE 0.001456
K_344 X_NUC_2.L_CORE X_NUC_125.L_CORE 0.001579
K_345 X_NUC_2.L_CORE X_NUC_126.L_CORE 0.001584
K_346 X_NUC_2.L_CORE X_NUC_127.L_CORE 0.001572
K_347 X_NUC_2.L_CORE X_NUC_128.L_CORE 0.001575
K_348 X_NUC_2.L_CORE X_NUC_129.L_CORE 0.001524
K_349 X_NUC_2.L_CORE X_NUC_130.L_CORE 0.001519
K_350 X_NUC_2.L_CORE X_NUC_131.L_CORE 0.001516
K_351 X_NUC_2.L_CORE X_NUC_132.L_CORE 0.001513
K_352 X_NUC_2.L_CORE X_NUC_133.L_CORE 0.001419
K_353 X_NUC_2.L_CORE X_NUC_134.L_CORE 0.001418
K_354 X_NUC_2.L_CORE X_NUC_135.L_CORE 0.001411
K_355 X_NUC_2.L_CORE X_NUC_136.L_CORE 0.001416
K_356 X_NUC_2.L_CORE X_NUC_137.L_CORE 0.001542
K_357 X_NUC_2.L_CORE X_NUC_138.L_CORE 0.001545
K_358 X_NUC_2.L_CORE X_NUC_139.L_CORE 0.001537
K_359 X_NUC_2.L_CORE X_NUC_140.L_CORE 0.001535
K_360 X_NUC_2.L_CORE X_NUC_141.L_CORE 0.001398
K_361 X_NUC_2.L_CORE X_NUC_142.L_CORE 0.001393
K_362 X_NUC_2.L_CORE X_NUC_143.L_CORE 0.001389
K_363 X_NUC_2.L_CORE X_NUC_144.L_CORE 0.001390
K_364 X_NUC_2.L_CORE X_NUC_145.L_CORE 0.001418
K_365 X_NUC_2.L_CORE X_NUC_146.L_CORE 0.001420
K_366 X_NUC_2.L_CORE X_NUC_147.L_CORE 0.001411
K_367 X_NUC_2.L_CORE X_NUC_148.L_CORE 0.001415
K_368 X_NUC_2.L_CORE X_NUC_149.L_CORE 0.001443
K_369 X_NUC_2.L_CORE X_NUC_150.L_CORE 0.001442
K_370 X_NUC_2.L_CORE X_NUC_151.L_CORE 0.001437
K_371 X_NUC_2.L_CORE X_NUC_152.L_CORE 0.001434
K_372 X_NUC_2.L_CORE X_NUC_153.L_CORE 0.001337
K_373 X_NUC_2.L_CORE X_NUC_154.L_CORE 0.001335
K_374 X_NUC_2.L_CORE X_NUC_155.L_CORE 0.001329
K_375 X_NUC_2.L_CORE X_NUC_156.L_CORE 0.001332
K_376 X_NUC_2.L_CORE X_NUC_157.L_CORE 0.001400
K_377 X_NUC_2.L_CORE X_NUC_158.L_CORE 0.001402
K_378 X_NUC_2.L_CORE X_NUC_159.L_CORE 0.001395
K_379 X_NUC_2.L_CORE X_NUC_160.L_CORE 0.001395
K_380 X_NUC_2.L_CORE X_NUC_161.L_CORE 0.001345
K_381 X_NUC_2.L_CORE X_NUC_162.L_CORE 0.001342
K_382 X_NUC_2.L_CORE X_NUC_163.L_CORE 0.001338
K_383 X_NUC_2.L_CORE X_NUC_164.L_CORE 0.001338
K_384 X_NUC_2.L_CORE X_NUC_165.L_CORE 0.001319
K_385 X_NUC_2.L_CORE X_NUC_166.L_CORE 0.001318
K_386 X_NUC_2.L_CORE X_NUC_167.L_CORE 0.001312
K_387 X_NUC_2.L_CORE X_NUC_168.L_CORE 0.001314
K_388 X_NUC_2.L_CORE X_NUC_169.L_CORE 0.001333
K_389 X_NUC_2.L_CORE X_NUC_170.L_CORE 0.001332
K_390 X_NUC_2.L_CORE X_NUC_171.L_CORE 0.001327
K_391 X_NUC_2.L_CORE X_NUC_172.L_CORE 0.001326
K_392 X_NUC_2.L_CORE X_NUC_173.L_CORE 0.033731
K_393 X_NUC_2.L_CORE X_NUC_174.L_CORE 0.004812
K_394 X_NUC_2.L_CORE X_NUC_175.L_CORE 0.005181
K_395 X_NUC_2.L_CORE X_NUC_176.L_CORE 0.005740
K_396 X_NUC_2.L_CORE X_NUC_177.L_CORE 0.003131
K_397 X_NUC_2.L_CORE X_NUC_178.L_CORE 0.004889
K_398 X_NUC_2.L_CORE X_NUC_179.L_CORE 0.003163
K_399 X_NUC_2.L_CORE X_NUC_180.L_CORE 0.002833
K_400 X_NUC_2.L_CORE X_NUC_181.L_CORE 0.003874
K_401 X_NUC_2.L_CORE X_NUC_182.L_CORE 0.002392
K_402 X_NUC_2.L_CORE X_NUC_183.L_CORE 0.002922
K_403 X_NUC_2.L_CORE X_NUC_184.L_CORE 0.002735
K_404 X_NUC_2.L_CORE X_NUC_185.L_CORE 0.002157
K_405 X_NUC_2.L_CORE X_NUC_186.L_CORE 0.002900
K_406 X_NUC_2.L_CORE X_NUC_187.L_CORE 0.002118
K_407 X_NUC_2.L_CORE X_NUC_188.L_CORE 0.002177
K_408 X_NUC_2.L_CORE X_NUC_189.L_CORE 0.002460
K_409 X_NUC_2.L_CORE X_NUC_190.L_CORE 0.001856
K_410 X_NUC_2.L_CORE X_NUC_191.L_CORE 0.002268
K_411 X_NUC_2.L_CORE X_NUC_192.L_CORE 0.001987
K_412 X_NUC_2.L_CORE X_NUC_193.L_CORE 0.001804
K_413 X_NUC_2.L_CORE X_NUC_194.L_CORE 0.002178
K_414 X_NUC_2.L_CORE X_NUC_195.L_CORE 0.001708
K_415 X_NUC_2.L_CORE X_NUC_196.L_CORE 0.001862
K_416 X_NUC_2.L_CORE X_NUC_197.L_CORE 0.001891
K_417 X_NUC_2.L_CORE X_NUC_198.L_CORE 0.001600
K_418 X_NUC_2.L_CORE X_NUC_199.L_CORE 0.001893
K_419 X_NUC_2.L_CORE X_NUC_200.L_CORE 0.001631
K_420 X_NUC_2.L_CORE X_NUC_201.L_CORE 0.001606
K_421 X_NUC_2.L_CORE X_NUC_202.L_CORE 0.001774
K_422 X_NUC_2.L_CORE X_NUC_203.L_CORE 0.001488
K_423 X_NUC_2.L_CORE X_NUC_204.L_CORE 0.001649
K_424 X_NUC_2.L_CORE X_NUC_205.L_CORE 0.001577
K_425 X_NUC_2.L_CORE X_NUC_206.L_CORE 0.001448
K_426 X_NUC_2.L_CORE X_NUC_207.L_CORE 0.001627
K_427 X_NUC_2.L_CORE X_NUC_208.L_CORE 0.001426
K_428 X_NUC_2.L_CORE X_NUC_209.L_CORE 0.001466
K_429 X_NUC_2.L_CORE X_NUC_210.L_CORE 0.001513
K_430 X_NUC_2.L_CORE X_NUC_211.L_CORE 0.001354
K_431 X_NUC_2.L_CORE X_NUC_212.L_CORE 0.001476
K_432 X_NUC_2.L_CORE X_NUC_213.L_CORE 0.001384
K_433 X_NUC_2.L_CORE X_NUC_214.L_CORE 0.001343
K_434 X_NUC_2.L_CORE X_NUC_215.L_CORE 0.001425
K_435 X_NUC_2.L_CORE X_NUC_216.L_CORE 0.001301
K_436 X_NUC_2.L_CORE X_NUC_217.L_CORE 0.001348
K_437 X_NUC_2.L_CORE X_NUC_218.L_CORE 0.001335
K_438 X_NUC_2.L_CORE X_NUC_219.L_CORE 0.001270
K_439 X_NUC_2.L_CORE X_NUC_220.L_CORE 0.001320
K_440 X_NUC_2.L_CORE X_NUC_221.L_CORE 0.001265
K_441 X_NUC_2.L_CORE X_NUC_222.L_CORE 0.001260
K_442 X_NUC_3.L_CORE X_NUC_4.L_CORE 0.207973
K_443 X_NUC_3.L_CORE X_NUC_5.L_CORE 0.004839
K_444 X_NUC_3.L_CORE X_NUC_6.L_CORE 0.004734
K_445 X_NUC_3.L_CORE X_NUC_7.L_CORE 0.004763
K_446 X_NUC_3.L_CORE X_NUC_8.L_CORE 0.004796
K_447 X_NUC_3.L_CORE X_NUC_9.L_CORE 0.005192
K_448 X_NUC_3.L_CORE X_NUC_10.L_CORE 0.005246
K_449 X_NUC_3.L_CORE X_NUC_11.L_CORE 0.005145
K_450 X_NUC_3.L_CORE X_NUC_12.L_CORE 0.005261
K_451 X_NUC_3.L_CORE X_NUC_13.L_CORE 0.005531
K_452 X_NUC_3.L_CORE X_NUC_14.L_CORE 0.005463
K_453 X_NUC_3.L_CORE X_NUC_15.L_CORE 0.005529
K_454 X_NUC_3.L_CORE X_NUC_16.L_CORE 0.005409
K_455 X_NUC_3.L_CORE X_NUC_17.L_CORE 0.003121
K_456 X_NUC_3.L_CORE X_NUC_18.L_CORE 0.003093
K_457 X_NUC_3.L_CORE X_NUC_19.L_CORE 0.003082
K_458 X_NUC_3.L_CORE X_NUC_20.L_CORE 0.003117
K_459 X_NUC_3.L_CORE X_NUC_21.L_CORE 0.004701
K_460 X_NUC_3.L_CORE X_NUC_22.L_CORE 0.004800
K_461 X_NUC_3.L_CORE X_NUC_23.L_CORE 0.004718
K_462 X_NUC_3.L_CORE X_NUC_24.L_CORE 0.004719
K_463 X_NUC_3.L_CORE X_NUC_25.L_CORE 0.003101
K_464 X_NUC_3.L_CORE X_NUC_26.L_CORE 0.003060
K_465 X_NUC_3.L_CORE X_NUC_27.L_CORE 0.003076
K_466 X_NUC_3.L_CORE X_NUC_28.L_CORE 0.003064
K_467 X_NUC_3.L_CORE X_NUC_29.L_CORE 0.002804
K_468 X_NUC_3.L_CORE X_NUC_30.L_CORE 0.002807
K_469 X_NUC_3.L_CORE X_NUC_31.L_CORE 0.002779
K_470 X_NUC_3.L_CORE X_NUC_32.L_CORE 0.002814
K_471 X_NUC_3.L_CORE X_NUC_33.L_CORE 0.003679
K_472 X_NUC_3.L_CORE X_NUC_34.L_CORE 0.003696
K_473 X_NUC_3.L_CORE X_NUC_35.L_CORE 0.003690
K_474 X_NUC_3.L_CORE X_NUC_36.L_CORE 0.003638
K_475 X_NUC_3.L_CORE X_NUC_37.L_CORE 0.002363
K_476 X_NUC_3.L_CORE X_NUC_38.L_CORE 0.002341
K_477 X_NUC_3.L_CORE X_NUC_39.L_CORE 0.002340
K_478 X_NUC_3.L_CORE X_NUC_40.L_CORE 0.002351
K_479 X_NUC_3.L_CORE X_NUC_41.L_CORE 0.002843
K_480 X_NUC_3.L_CORE X_NUC_42.L_CORE 0.002871
K_481 X_NUC_3.L_CORE X_NUC_43.L_CORE 0.002834
K_482 X_NUC_3.L_CORE X_NUC_44.L_CORE 0.002852
K_483 X_NUC_3.L_CORE X_NUC_45.L_CORE 0.002644
K_484 X_NUC_3.L_CORE X_NUC_46.L_CORE 0.002625
K_485 X_NUC_3.L_CORE X_NUC_47.L_CORE 0.002633
K_486 X_NUC_3.L_CORE X_NUC_48.L_CORE 0.002612
K_487 X_NUC_3.L_CORE X_NUC_49.L_CORE 0.002132
K_488 X_NUC_3.L_CORE X_NUC_50.L_CORE 0.002125
K_489 X_NUC_3.L_CORE X_NUC_51.L_CORE 0.002113
K_490 X_NUC_3.L_CORE X_NUC_52.L_CORE 0.002131
K_491 X_NUC_3.L_CORE X_NUC_53.L_CORE 0.002766
K_492 X_NUC_3.L_CORE X_NUC_54.L_CORE 0.002791
K_493 X_NUC_3.L_CORE X_NUC_55.L_CORE 0.002769
K_494 X_NUC_3.L_CORE X_NUC_56.L_CORE 0.002755
K_495 X_NUC_3.L_CORE X_NUC_57.L_CORE 0.002077
K_496 X_NUC_3.L_CORE X_NUC_58.L_CORE 0.002059