* Applied Vacuum Engineering (AVE) - SPICE Netlist
* Element: Rhodium-103 (Z=45, A=103)
* Auto-generated topological mutual impedance array
* Nodes: 103



* -----------------------------------------------------------------
* NUCLEON (Baseline 6^3_2 Topological Defect)
* -----------------------------------------------------------------
.SUBCKT NUCLEON IN OUT
L_CORE IN OUT 1uH
C_CORE IN OUT 1pF
.ENDS NUCLEON



* -----------------------------------------------------------------
* MACROSCOPIC TOPOLOGY (Nucleon Array)
* -----------------------------------------------------------------
V_STIM NODE_1 0 AC 1 PULSE(0 100k 10n 1n 1n 50n 100n)

X_NUC_1 NODE_1 0 NUCLEON
X_NUC_2 NODE_2 0 NUCLEON
X_NUC_3 NODE_3 0 NUCLEON
X_NUC_4 NODE_4 0 NUCLEON
X_NUC_5 NODE_5 0 NUCLEON
X_NUC_6 NODE_6 0 NUCLEON
X_NUC_7 NODE_7 0 NUCLEON
X_NUC_8 NODE_8 0 NUCLEON
X_NUC_9 NODE_9 0 NUCLEON
X_NUC_10 NODE_10 0 NUCLEON
X_NUC_11 NODE_11 0 NUCLEON
X_NUC_12 NODE_12 0 NUCLEON
X_NUC_13 NODE_13 0 NUCLEON
X_NUC_14 NODE_14 0 NUCLEON
X_NUC_15 NODE_15 0 NUCLEON
X_NUC_16 NODE_16 0 NUCLEON
X_NUC_17 NODE_17 0 NUCLEON
X_NUC_18 NODE_18 0 NUCLEON
X_NUC_19 NODE_19 0 NUCLEON
X_NUC_20 NODE_20 0 NUCLEON
X_NUC_21 NODE_21 0 NUCLEON
X_NUC_22 NODE_22 0 NUCLEON
X_NUC_23 NODE_23 0 NUCLEON
X_NUC_24 NODE_24 0 NUCLEON
X_NUC_25 NODE_25 0 NUCLEON
X_NUC_26 NODE_26 0 NUCLEON
X_NUC_27 NODE_27 0 NUCLEON
X_NUC_28 NODE_28 0 NUCLEON
X_NUC_29 NODE_29 0 NUCLEON
X_NUC_30 NODE_30 0 NUCLEON
X_NUC_31 NODE_31 0 NUCLEON
X_NUC_32 NODE_32 0 NUCLEON
X_NUC_33 NODE_33 0 NUCLEON
X_NUC_34 NODE_34 0 NUCLEON
X_NUC_35 NODE_35 0 NUCLEON
X_NUC_36 NODE_36 0 NUCLEON
X_NUC_37 NODE_37 0 NUCLEON
X_NUC_38 NODE_38 0 NUCLEON
X_NUC_39 NODE_39 0 NUCLEON
X_NUC_40 NODE_40 0 NUCLEON
X_NUC_41 NODE_41 0 NUCLEON
X_NUC_42 NODE_42 0 NUCLEON
X_NUC_43 NODE_43 0 NUCLEON
X_NUC_44 NODE_44 0 NUCLEON
X_NUC_45 NODE_45 0 NUCLEON
X_NUC_46 NODE_46 0 NUCLEON
X_NUC_47 NODE_47 0 NUCLEON
X_NUC_48 NODE_48 0 NUCLEON
X_NUC_49 NODE_49 0 NUCLEON
X_NUC_50 NODE_50 0 NUCLEON
X_NUC_51 NODE_51 0 NUCLEON
X_NUC_52 NODE_52 0 NUCLEON
X_NUC_53 NODE_53 0 NUCLEON
X_NUC_54 NODE_54 0 NUCLEON
X_NUC_55 NODE_55 0 NUCLEON
X_NUC_56 NODE_56 0 NUCLEON
X_NUC_57 NODE_57 0 NUCLEON
X_NUC_58 NODE_58 0 NUCLEON
X_NUC_59 NODE_59 0 NUCLEON
X_NUC_60 NODE_60 0 NUCLEON
X_NUC_61 NODE_61 0 NUCLEON
X_NUC_62 NODE_62 0 NUCLEON
X_NUC_63 NODE_63 0 NUCLEON
X_NUC_64 NODE_64 0 NUCLEON
X_NUC_65 NODE_65 0 NUCLEON
X_NUC_66 NODE_66 0 NUCLEON
X_NUC_67 NODE_67 0 NUCLEON
X_NUC_68 NODE_68 0 NUCLEON
X_NUC_69 NODE_69 0 NUCLEON
X_NUC_70 NODE_70 0 NUCLEON
X_NUC_71 NODE_71 0 NUCLEON
X_NUC_72 NODE_72 0 NUCLEON
X_NUC_73 NODE_73 0 NUCLEON
X_NUC_74 NODE_74 0 NUCLEON
X_NUC_75 NODE_75 0 NUCLEON
X_NUC_76 NODE_76 0 NUCLEON
X_NUC_77 NODE_77 0 NUCLEON
X_NUC_78 NODE_78 0 NUCLEON
X_NUC_79 NODE_79 0 NUCLEON
X_NUC_80 NODE_80 0 NUCLEON
X_NUC_81 NODE_81 0 NUCLEON
X_NUC_82 NODE_82 0 NUCLEON
X_NUC_83 NODE_83 0 NUCLEON
X_NUC_84 NODE_84 0 NUCLEON
X_NUC_85 NODE_85 0 NUCLEON
X_NUC_86 NODE_86 0 NUCLEON
X_NUC_87 NODE_87 0 NUCLEON
X_NUC_88 NODE_88 0 NUCLEON
X_NUC_89 NODE_89 0 NUCLEON
X_NUC_90 NODE_90 0 NUCLEON
X_NUC_91 NODE_91 0 NUCLEON
X_NUC_92 NODE_92 0 NUCLEON
X_NUC_93 NODE_93 0 NUCLEON
X_NUC_94 NODE_94 0 NUCLEON
X_NUC_95 NODE_95 0 NUCLEON
X_NUC_96 NODE_96 0 NUCLEON
X_NUC_97 NODE_97 0 NUCLEON
X_NUC_98 NODE_98 0 NUCLEON
X_NUC_99 NODE_99 0 NUCLEON
X_NUC_100 NODE_100 0 NUCLEON
X_NUC_101 NODE_101 0 NUCLEON
X_NUC_102 NODE_102 0 NUCLEON
X_NUC_103 NODE_103 0 NUCLEON


* -----------------------------------------------------------------
* SPATIAL MUTUAL INDUCTANCE (K-FACTORS)
* -----------------------------------------------------------------
K_1 X_NUC_1.L_CORE X_NUC_2.L_CORE 0.207973
K_2 X_NUC_1.L_CORE X_NUC_3.L_CORE 0.207973
K_3 X_NUC_1.L_CORE X_NUC_4.L_CORE 0.207973
K_4 X_NUC_1.L_CORE X_NUC_5.L_CORE 0.006887
K_5 X_NUC_1.L_CORE X_NUC_6.L_CORE 0.006678
K_6 X_NUC_1.L_CORE X_NUC_7.L_CORE 0.006727
K_7 X_NUC_1.L_CORE X_NUC_8.L_CORE 0.006793
K_8 X_NUC_1.L_CORE X_NUC_9.L_CORE 0.007434
K_9 X_NUC_1.L_CORE X_NUC_10.L_CORE 0.007535
K_10 X_NUC_1.L_CORE X_NUC_11.L_CORE 0.007318
K_11 X_NUC_1.L_CORE X_NUC_12.L_CORE 0.007552
K_12 X_NUC_1.L_CORE X_NUC_13.L_CORE 0.007921
K_13 X_NUC_1.L_CORE X_NUC_14.L_CORE 0.007779
K_14 X_NUC_1.L_CORE X_NUC_15.L_CORE 0.007875
K_15 X_NUC_1.L_CORE X_NUC_16.L_CORE 0.007653
K_16 X_NUC_1.L_CORE X_NUC_17.L_CORE 0.004494
K_17 X_NUC_1.L_CORE X_NUC_18.L_CORE 0.004437
K_18 X_NUC_1.L_CORE X_NUC_19.L_CORE 0.004409
K_19 X_NUC_1.L_CORE X_NUC_20.L_CORE 0.004480
K_20 X_NUC_1.L_CORE X_NUC_21.L_CORE 0.006675
K_21 X_NUC_1.L_CORE X_NUC_22.L_CORE 0.006852
K_22 X_NUC_1.L_CORE X_NUC_23.L_CORE 0.006667
K_23 X_NUC_1.L_CORE X_NUC_24.L_CORE 0.006673
K_24 X_NUC_1.L_CORE X_NUC_25.L_CORE 0.004469
K_25 X_NUC_1.L_CORE X_NUC_26.L_CORE 0.004388
K_26 X_NUC_1.L_CORE X_NUC_27.L_CORE 0.004407
K_27 X_NUC_1.L_CORE X_NUC_28.L_CORE 0.004388
K_28 X_NUC_1.L_CORE X_NUC_29.L_CORE 0.004054
K_29 X_NUC_1.L_CORE X_NUC_30.L_CORE 0.004058
K_30 X_NUC_1.L_CORE X_NUC_31.L_CORE 0.003995
K_31 X_NUC_1.L_CORE X_NUC_32.L_CORE 0.004062
K_32 X_NUC_1.L_CORE X_NUC_33.L_CORE 0.005159
K_33 X_NUC_1.L_CORE X_NUC_34.L_CORE 0.005183
K_34 X_NUC_1.L_CORE X_NUC_35.L_CORE 0.005148
K_35 X_NUC_1.L_CORE X_NUC_36.L_CORE 0.005065
K_36 X_NUC_1.L_CORE X_NUC_37.L_CORE 0.003448
K_37 X_NUC_1.L_CORE X_NUC_38.L_CORE 0.003406
K_38 X_NUC_1.L_CORE X_NUC_39.L_CORE 0.003394
K_39 X_NUC_1.L_CORE X_NUC_40.L_CORE 0.003416
K_40 X_NUC_1.L_CORE X_NUC_41.L_CORE 0.004045
K_41 X_NUC_1.L_CORE X_NUC_42.L_CORE 0.004089
K_42 X_NUC_1.L_CORE X_NUC_43.L_CORE 0.004011
K_43 X_NUC_1.L_CORE X_NUC_44.L_CORE 0.004044
K_44 X_NUC_1.L_CORE X_NUC_45.L_CORE 0.003773
K_45 X_NUC_1.L_CORE X_NUC_46.L_CORE 0.003740
K_46 X_NUC_1.L_CORE X_NUC_47.L_CORE 0.003738
K_47 X_NUC_1.L_CORE X_NUC_48.L_CORE 0.003706
K_48 X_NUC_1.L_CORE X_NUC_49.L_CORE 0.003131
K_49 X_NUC_1.L_CORE X_NUC_50.L_CORE 0.003118
K_50 X_NUC_1.L_CORE X_NUC_51.L_CORE 0.003087
K_51 X_NUC_1.L_CORE X_NUC_52.L_CORE 0.003119
K_52 X_NUC_1.L_CORE X_NUC_53.L_CORE 0.003815
K_53 X_NUC_1.L_CORE X_NUC_54.L_CORE 0.003846
K_54 X_NUC_1.L_CORE X_NUC_55.L_CORE 0.003795
K_55 X_NUC_1.L_CORE X_NUC_56.L_CORE 0.003780
K_56 X_NUC_1.L_CORE X_NUC_57.L_CORE 0.003044
K_57 X_NUC_1.L_CORE X_NUC_58.L_CORE 0.003014
K_58 X_NUC_1.L_CORE X_NUC_59.L_CORE 0.003005
K_59 X_NUC_1.L_CORE X_NUC_60.L_CORE 0.003007
K_60 X_NUC_1.L_CORE X_NUC_61.L_CORE 0.003087
K_61 X_NUC_1.L_CORE X_NUC_62.L_CORE 0.003096
K_62 X_NUC_1.L_CORE X_NUC_63.L_CORE 0.003053
K_63 X_NUC_1.L_CORE X_NUC_64.L_CORE 0.003078
K_64 X_NUC_1.L_CORE X_NUC_65.L_CORE 0.003258
K_65 X_NUC_1.L_CORE X_NUC_66.L_CORE 0.003253
K_66 X_NUC_1.L_CORE X_NUC_67.L_CORE 0.003233
K_67 X_NUC_1.L_CORE X_NUC_68.L_CORE 0.003213
K_68 X_NUC_1.L_CORE X_NUC_69.L_CORE 0.002744
K_69 X_NUC_1.L_CORE X_NUC_70.L_CORE 0.002729
K_70 X_NUC_1.L_CORE X_NUC_71.L_CORE 0.002709
K_71 X_NUC_1.L_CORE X_NUC_72.L_CORE 0.002723
K_72 X_NUC_1.L_CORE X_NUC_73.L_CORE 0.003013
K_73 X_NUC_1.L_CORE X_NUC_74.L_CORE 0.003026
K_74 X_NUC_1.L_CORE X_NUC_75.L_CORE 0.002988
K_75 X_NUC_1.L_CORE X_NUC_76.L_CORE 0.002993
K_76 X_NUC_1.L_CORE X_NUC_77.L_CORE 0.002789
K_77 X_NUC_1.L_CORE X_NUC_78.L_CORE 0.002775
K_78 X_NUC_1.L_CORE X_NUC_79.L_CORE 0.002760
K_79 X_NUC_1.L_CORE X_NUC_80.L_CORE 0.002756
K_80 X_NUC_1.L_CORE X_NUC_81.L_CORE 0.002660
K_81 X_NUC_1.L_CORE X_NUC_82.L_CORE 0.002656
K_82 X_NUC_1.L_CORE X_NUC_83.L_CORE 0.002630
K_83 X_NUC_1.L_CORE X_NUC_84.L_CORE 0.002642
K_84 X_NUC_1.L_CORE X_NUC_85.L_CORE 0.002730
K_85 X_NUC_1.L_CORE X_NUC_86.L_CORE 0.002729
K_86 X_NUC_1.L_CORE X_NUC_87.L_CORE 0.002705
K_87 X_NUC_1.L_CORE X_NUC_88.L_CORE 0.002704
K_88 X_NUC_1.L_CORE X_NUC_89.L_CORE 0.032235
K_89 X_NUC_1.L_CORE X_NUC_90.L_CORE 0.005486
K_90 X_NUC_1.L_CORE X_NUC_91.L_CORE 0.005771
K_91 X_NUC_1.L_CORE X_NUC_92.L_CORE 0.005746
K_92 X_NUC_1.L_CORE X_NUC_93.L_CORE 0.003586
K_93 X_NUC_1.L_CORE X_NUC_94.L_CORE 0.004795
K_94 X_NUC_1.L_CORE X_NUC_95.L_CORE 0.003458
K_95 X_NUC_1.L_CORE X_NUC_96.L_CORE 0.003186
K_96 X_NUC_1.L_CORE X_NUC_97.L_CORE 0.003677
K_97 X_NUC_1.L_CORE X_NUC_98.L_CORE 0.002746
K_98 X_NUC_1.L_CORE X_NUC_99.L_CORE 0.003026
K_99 X_NUC_1.L_CORE X_NUC_100.L_CORE 0.002829
K_100 X_NUC_1.L_CORE X_NUC_101.L_CORE 0.002511
K_101 X_NUC_1.L_CORE X_NUC_102.L_CORE 0.002697
K_102 X_NUC_1.L_CORE X_NUC_103.L_CORE 0.002429
K_103 X_NUC_2.L_CORE X_NUC_3.L_CORE 0.207973
K_104 X_NUC_2.L_CORE X_NUC_4.L_CORE 0.207973
K_105 X_NUC_2.L_CORE X_NUC_5.L_CORE 0.007109
K_106 X_NUC_2.L_CORE X_NUC_6.L_CORE 0.006887
K_107 X_NUC_2.L_CORE X_NUC_7.L_CORE 0.006937
K_108 X_NUC_2.L_CORE X_NUC_8.L_CORE 0.007010
K_109 X_NUC_2.L_CORE X_NUC_9.L_CORE 0.007327
K_110 X_NUC_2.L_CORE X_NUC_10.L_CORE 0.007434
K_111 X_NUC_2.L_CORE X_NUC_11.L_CORE 0.007220
K_112 X_NUC_2.L_CORE X_NUC_12.L_CORE 0.007445
K_113 X_NUC_2.L_CORE X_NUC_13.L_CORE 0.008060
K_114 X_NUC_2.L_CORE X_NUC_14.L_CORE 0.007921
K_115 X_NUC_2.L_CORE X_NUC_15.L_CORE 0.008017
K_116 X_NUC_2.L_CORE X_NUC_16.L_CORE 0.007783
K_117 X_NUC_2.L_CORE X_NUC_17.L_CORE 0.004550
K_118 X_NUC_2.L_CORE X_NUC_18.L_CORE 0.004494
K_119 X_NUC_2.L_CORE X_NUC_19.L_CORE 0.004463
K_120 X_NUC_2.L_CORE X_NUC_20.L_CORE 0.004536
K_121 X_NUC_2.L_CORE X_NUC_21.L_CORE 0.006504
K_122 X_NUC_2.L_CORE X_NUC_22.L_CORE 0.006675
K_123 X_NUC_2.L_CORE X_NUC_23.L_CORE 0.006500
K_124 X_NUC_2.L_CORE X_NUC_24.L_CORE 0.006506
K_125 X_NUC_2.L_CORE X_NUC_25.L_CORE 0.004553
K_126 X_NUC_2.L_CORE X_NUC_26.L_CORE 0.004469
K_127 X_NUC_2.L_CORE X_NUC_27.L_CORE 0.004488
K_128 X_NUC_2.L_CORE X_NUC_28.L_CORE 0.004468
K_129 X_NUC_2.L_CORE X_NUC_29.L_CORE 0.004049
K_130 X_NUC_2.L_CORE X_NUC_30.L_CORE 0.004054
K_131 X_NUC_2.L_CORE X_NUC_31.L_CORE 0.003991
K_132 X_NUC_2.L_CORE X_NUC_32.L_CORE 0.004058
K_133 X_NUC_2.L_CORE X_NUC_33.L_CORE 0.005132
K_134 X_NUC_2.L_CORE X_NUC_34.L_CORE 0.005159
K_135 X_NUC_2.L_CORE X_NUC_35.L_CORE 0.005123
K_136 X_NUC_2.L_CORE X_NUC_36.L_CORE 0.005041
K_137 X_NUC_2.L_CORE X_NUC_37.L_CORE 0.003491
K_138 X_NUC_2.L_CORE X_NUC_38.L_CORE 0.003448
K_139 X_NUC_2.L_CORE X_NUC_39.L_CORE 0.003436
K_140 X_NUC_2.L_CORE X_NUC_40.L_CORE 0.003458
K_141 X_NUC_2.L_CORE X_NUC_41.L_CORE 0.004000
K_142 X_NUC_2.L_CORE X_NUC_42.L_CORE 0.004045
K_143 X_NUC_2.L_CORE X_NUC_43.L_CORE 0.003968
K_144 X_NUC_2.L_CORE X_NUC_44.L_CORE 0.004000
K_145 X_NUC_2.L_CORE X_NUC_45.L_CORE 0.003806
K_146 X_NUC_2.L_CORE X_NUC_46.L_CORE 0.003773
K_147 X_NUC_2.L_CORE X_NUC_47.L_CORE 0.003771
K_148 X_NUC_2.L_CORE X_NUC_48.L_CORE 0.003738
K_149 X_NUC_2.L_CORE X_NUC_49.L_CORE 0.003144
K_150 X_NUC_2.L_CORE X_NUC_50.L_CORE 0.003131
K_151 X_NUC_2.L_CORE X_NUC_51.L_CORE 0.003100
K_152 X_NUC_2.L_CORE X_NUC_52.L_CORE 0.003132
K_153 X_NUC_2.L_CORE X_NUC_53.L_CORE 0.003783
K_154 X_NUC_2.L_CORE X_NUC_54.L_CORE 0.003815
K_155 X_NUC_2.L_CORE X_NUC_55.L_CORE 0.003765
K_156 X_NUC_2.L_CORE X_NUC_56.L_CORE 0.003750
K_157 X_NUC_2.L_CORE X_NUC_57.L_CORE 0.003074
K_158 X_NUC_2.L_CORE X_NUC_58.L_CORE 0.003044
K_159 X_NUC_2.L_CORE X_NUC_59.L_CORE 0.003034
K_160 X_NUC_2.L_CORE X_NUC_60.L_CORE 0.003036
K_161 X_NUC_2.L_CORE X_NUC_61.L_CORE 0.003077
K_162 X_NUC_2.L_CORE X_NUC_62.L_CORE 0.003087
K_163 X_NUC_2.L_CORE X_NUC_63.L_CORE 0.003044
K_164 X_NUC_2.L_CORE X_NUC_64.L_CORE 0.003069
K_165 X_NUC_2.L_CORE X_NUC_65.L_CORE 0.003262
K_166 X_NUC_2.L_CORE X_NUC_66.L_CORE 0.003258
K_167 X_NUC_2.L_CORE X_NUC_67.L_CORE 0.003238
K_168 X_NUC_2.L_CORE X_NUC_68.L_CORE 0.003217
K_169 X_NUC_2.L_CORE X_NUC_69.L_CORE 0.002759
K_170 X_NUC_2.L_CORE X_NUC_70.L_CORE 0.002744
K_171 X_NUC_2.L_CORE X_NUC_71.L_CORE 0.002724
K_172 X_NUC_2.L_CORE X_NUC_72.L_CORE 0.002738
K_173 X_NUC_2.L_CORE X_NUC_73.L_CORE 0.003000
K_174 X_NUC_2.L_CORE X_NUC_74.L_CORE 0.003013
K_175 X_NUC_2.L_CORE X_NUC_75.L_CORE 0.002975
K_176 X_NUC_2.L_CORE X_NUC_76.L_CORE 0.002980
K_177 X_NUC_2.L_CORE X_NUC_77.L_CORE 0.002803
K_178 X_NUC_2.L_CORE X_NUC_78.L_CORE 0.002789
K_179 X_NUC_2.L_CORE X_NUC_79.L_CORE 0.002774
K_180 X_NUC_2.L_CORE X_NUC_80.L_CORE 0.002769
K_181 X_NUC_2.L_CORE X_NUC_81.L_CORE 0.002662
K_182 X_NUC_2.L_CORE X_NUC_82.L_CORE 0.002660
K_183 X_NUC_2.L_CORE X_NUC_83.L_CORE 0.002633
K_184 X_NUC_2.L_CORE X_NUC_84.L_CORE 0.002645
K_185 X_NUC_2.L_CORE X_NUC_85.L_CORE 0.002730
K_186 X_NUC_2.L_CORE X_NUC_86.L_CORE 0.002730
K_187 X_NUC_2.L_CORE X_NUC_87.L_CORE 0.002705
K_188 X_NUC_2.L_CORE X_NUC_88.L_CORE 0.002705
K_189 X_NUC_2.L_CORE X_NUC_89.L_CORE 0.029926
K_190 X_NUC_2.L_CORE X_NUC_90.L_CORE 0.005629
K_191 X_NUC_2.L_CORE X_NUC_91.L_CORE 0.005693
K_192 X_NUC_2.L_CORE X_NUC_92.L_CORE 0.005807
K_193 X_NUC_2.L_CORE X_NUC_93.L_CORE 0.003622
K_194 X_NUC_2.L_CORE X_NUC_94.L_CORE 0.004708
K_195 X_NUC_2.L_CORE X_NUC_95.L_CORE 0.003505
K_196 X_NUC_2.L_CORE X_NUC_96.L_CORE 0.003182
K_197 X_NUC_2.L_CORE X_NUC_97.L_CORE 0.003665
K_198 X_NUC_2.L_CORE X_NUC_98.L_CORE 0.002770
K_199 X_NUC_2.L_CORE X_NUC_99.L_CORE 0.003006
K_200 X_NUC_2.L_CORE X_NUC_100.L_CORE 0.002843
K_201 X_NUC_2.L_CORE X_NUC_101.L_CORE 0.002518
K_202 X_NUC_2.L_CORE X_NUC_102.L_CORE 0.002691
K_203 X_NUC_2.L_CORE X_NUC_103.L_CORE 0.002437
K_204 X_NUC_3.L_CORE X_NUC_4.L_CORE 0.207973
K_205 X_NUC_3.L_CORE X_NUC_5.L_CORE 0.007051
K_206 X_NUC_3.L_CORE X_NUC_6.L_CORE 0.006831
K_207 X_NUC_3.L_CORE X_NUC_7.L_CORE 0.006887
K_208 X_NUC_3.L_CORE X_NUC_8.L_CORE 0.006954
K_209 X_NUC_3.L_CORE X_NUC_9.L_CORE 0.007545
K_210 X_NUC_3.L_CORE X_NUC_10.L_CORE 0.007657
K_211 X_NUC_3.L_CORE X_NUC_11.L_CORE 0.007434
K_212 X_NUC_3.L_CORE X_NUC_12.L_CORE 0.007674
K_213 X_NUC_3.L_CORE X_NUC_13.L_CORE 0.007957
K_214 X_NUC_3.L_CORE X_NUC_14.L_CORE 0.007818
K_215 X_NUC_3.L_CORE X_NUC_15.L_CORE 0.007921
K_216 X_NUC_3.L_CORE X_NUC_16.L_CORE 0.007690
K_217 X_NUC_3.L_CORE X_NUC_17.L_CORE 0.004581
K_218 X_NUC_3.L_CORE X_NUC_18.L_CORE 0.004523
K_219 X_NUC_3.L_CORE X_NUC_19.L_CORE 0.004494
K_220 X_NUC_3.L_CORE X_NUC_20.L_CORE 0.004567
K_221 X_NUC_3.L_CORE X_NUC_21.L_CORE 0.006676
K_222 X_NUC_3.L_CORE X_NUC_22.L_CORE 0.006857
K_223 X_NUC_3.L_CORE X_NUC_23.L_CORE 0.006675
K_224 X_NUC_3.L_CORE X_NUC_24.L_CORE 0.006678
K_225 X_NUC_3.L_CORE X_NUC_25.L_CORE 0.004533
K_226 X_NUC_3.L_CORE X_NUC_26.L_CORE 0.004449
K_227 X_NUC_3.L_CORE X_NUC_27.L_CORE 0.004469
K_228 X_NUC_3.L_CORE X_NUC_28.L_CORE 0.004448
K_229 X_NUC_3.L_CORE X_NUC_29.L_CORE 0.004114
K_230 X_NUC_3.L_CORE X_NUC_30.L_CORE 0.004119
K_231 X_NUC_3.L_CORE X_NUC_31.L_CORE 0.004054
K_232 X_NUC_3.L_CORE X_NUC_32.L_CORE 0.004124
K_233 X_NUC_3.L_CORE X_NUC_33.L_CORE 0.005167
K_234 X_NUC_3.L_CORE X_NUC_34.L_CORE 0.005193
K_235 X_NUC_3.L_CORE X_NUC_35.L_CORE 0.005159
K_236 X_NUC_3.L_CORE X_NUC_36.L_CORE 0.005075
K_237 X_NUC_3.L_CORE X_NUC_37.L_CORE 0.003503
K_238 X_NUC_3.L_CORE X_NUC_38.L_CORE 0.003459
K_239 X_NUC_3.L_CORE X_NUC_39.L_CORE 0.003448
K_240 X_NUC_3.L_CORE X_NUC_40.L_CORE 0.003470
K_241 X_NUC_3.L_CORE X_NUC_41.L_CORE 0.004078
K_242 X_NUC_3.L_CORE X_NUC_42.L_CORE 0.004125
K_243 X_NUC_3.L_CORE X_NUC_43.L_CORE 0.004045
K_244 X_NUC_3.L_CORE X_NUC_44.L_CORE 0.004078
K_245 X_NUC_3.L_CORE X_NUC_45.L_CORE 0.003808
K_246 X_NUC_3.L_CORE X_NUC_46.L_CORE 0.003774
K_247 X_NUC_3.L_CORE X_NUC_47.L_CORE 0.003773
K_248 X_NUC_3.L_CORE X_NUC_48.L_CORE 0.003740
K_249 X_NUC_3.L_CORE X_NUC_49.L_CORE 0.003177
K_250 X_NUC_3.L_CORE X_NUC_50.L_CORE 0.003163
K_251 X_NUC_3.L_CORE X_NUC_51.L_CORE 0.003131
K_252 X_NUC_3.L_CORE X_NUC_52.L_CORE 0.003164
K_253 X_NUC_3.L_CORE X_NUC_53.L_CORE 0.003834
K_254 X_NUC_3.L_CORE X_NUC_54.L_CORE 0.003866
K_255 X_NUC_3.L_CORE X_NUC_55.L_CORE 0.003815
K_256 X_NUC_3.L_CORE X_NUC_56.L_CORE 0.003798
K_257 X_NUC_3.L_CORE X_NUC_57.L_CORE 0.003083
K_258 X_NUC_3.L_CORE X_NUC_58.L_CORE 0.003053
K_259 X_NUC_3.L_CORE X_NUC_59.L_CORE 0.003044
K_260 X_NUC_3.L_CORE X_NUC_60.L_CORE 0.003045
K_261 X_NUC_3.L_CORE X_NUC_61.L_CORE 0.003122
K_262 X_NUC_3.L_CORE X_NUC_62.L_CORE 0.003131
K_263 X_NUC_3.L_CORE X_NUC_63.L_CORE 0.003087
K_264 X_NUC_3.L_CORE X_NUC_64.L_CORE 0.003112
K_265 X_NUC_3.L_CORE X_NUC_65.L_CORE 0.003282
K_266 X_NUC_3.L_CORE X_NUC_66.L_CORE 0.003278
K_267 X_NUC_3.L_CORE X_NUC_67.L_CORE 0.003258
K_268 X_NUC_3.L_CORE X_NUC_68.L_CORE 0.003237
K_269 X_NUC_3.L_CORE X_NUC_69.L_CORE 0.002780
K_270 X_NUC_3.L_CORE X_NUC_70.L_CORE 0.002764
K_271 X_NUC_3.L_CORE X_NUC_71.L_CORE 0.002744
K_272 X_NUC_3.L_CORE X_NUC_72.L_CORE 0.002758
K_273 X_NUC_3.L_CORE X_NUC_73.L_CORE 0.003038
K_274 X_NUC_3.L_CORE X_NUC_74.L_CORE 0.003052
K_275 X_NUC_3.L_CORE X_NUC_75.L_CORE 0.003013
K_276 X_NUC_3.L_CORE X_NUC_76.L_CORE 0.003018
K_277 X_NUC_3.L_CORE X_NUC_77.L_CORE 0.002818
K_278 X_NUC_3.L_CORE X_NUC_78.L_CORE 0.002804
K_279 X_NUC_3.L_CORE X_NUC_79.L_CORE 0.002789
K_280 X_NUC_3.L_CORE X_NUC_80.L_CORE 0.002785
K_281 X_NUC_3.L_CORE X_NUC_81.L_CORE 0.002690
K_282 X_NUC_3.L_CORE X_NUC_82.L_CORE 0.002687
K_283 X_NUC_3.L_CORE X_NUC_83.L_CORE 0.002660
K_284 X_NUC_3.L_CORE X_NUC_84.L_CORE 0.002672
K_285 X_NUC_3.L_CORE X_NUC_85.L_CORE 0.002755
K_286 X_NUC_3.L_CORE X_NUC_86.L_CORE 0.002755
K_287 X_NUC_3.L_CORE X_NUC_87.L_CORE 0.002730
K_288 X_NUC_3.L_CORE X_NUC_88.L_CORE 0.002729
K_289 X_NUC_3.L_CORE X_NUC_89.L_CORE 0.027917
K_290 X_NUC_3.L_CORE X_NUC_90.L_CORE 0.005579
K_291 X_NUC_3.L_CORE X_NUC_91.L_CORE 0.005822
K_292 X_NUC_3.L_CORE X_NUC_92.L_CORE 0.005751
K_293 X_NUC_3.L_CORE X_NUC_93.L_CORE 0.003643
K_294 X_NUC_3.L_CORE X_NUC_94.L_CORE 0.004795
K_295 X_NUC_3.L_CORE X_NUC_95.L_CORE 0.003497
K_296 X_NUC_3.L_CORE X_NUC_96.L_CORE 0.003224
K_297 X_NUC_3.L_CORE X_NUC_97.L_CORE 0.003688
K_298 X_NUC_3.L_CORE X_NUC_98.L_CORE 0.002781
K_299 X_NUC_3.L_CORE X_NUC_99.L_CORE 0.003049
K_300 X_NUC_3.L_CORE X_NUC_100.L_CORE 0.002853
K_301 X_NUC_3.L_CORE X_NUC_101.L_CORE 0.002541
K_302 X_NUC_3.L_CORE X_NUC_102.L_CORE 0.002717
K_303 X_NUC_3.L_CORE X_NUC_103.L_CORE 0.002453
K_304 X_NUC_4.L_CORE X_NUC_5.L_CORE 0.006977
K_305 X_NUC_4.L_CORE X_NUC_6.L_CORE 0.006763
K_306 X_NUC_4.L_CORE X_NUC_7.L_CORE 0.006814
K_307 X_NUC_4.L_CORE X_NUC_8.L_CORE 0.006887
K_308 X_NUC_4.L_CORE X_NUC_9.L_CORE 0.007311
K_309 X_NUC_4.L_CORE X_NUC_10.L_CORE 0.007413
K_310 X_NUC_4.L_CORE X_NUC_11.L_CORE 0.007205
K_311 X_NUC_4.L_CORE X_NUC_12.L_CORE 0.007434
K_312 X_NUC_4.L_CORE X_NUC_13.L_CORE 0.008207
K_313 X_NUC_4.L_CORE X_NUC_14.L_CORE 0.008055
K_314 X_NUC_4.L_CORE X_NUC_15.L_CORE 0.008162
K_315 X_NUC_4.L_CORE X_NUC_16.L_CORE 0.007921
K_316 X_NUC_4.L_CORE X_NUC_17.L_CORE 0.004506
K_317 X_NUC_4.L_CORE X_NUC_18.L_CORE 0.004450
K_318 X_NUC_4.L_CORE X_NUC_19.L_CORE 0.004422
K_319 X_NUC_4.L_CORE X_NUC_20.L_CORE 0.004494
K_320 X_NUC_4.L_CORE X_NUC_21.L_CORE 0.006669
K_321 X_NUC_4.L_CORE X_NUC_22.L_CORE 0.006850
K_322 X_NUC_4.L_CORE X_NUC_23.L_CORE 0.006665
K_323 X_NUC_4.L_CORE X_NUC_24.L_CORE 0.006675
K_324 X_NUC_4.L_CORE X_NUC_25.L_CORE 0.004554
K_325 X_NUC_4.L_CORE X_NUC_26.L_CORE 0.004469
K_326 X_NUC_4.L_CORE X_NUC_27.L_CORE 0.004489
K_327 X_NUC_4.L_CORE X_NUC_28.L_CORE 0.004469
K_328 X_NUC_4.L_CORE X_NUC_29.L_CORE 0.004045
K_329 X_NUC_4.L_CORE X_NUC_30.L_CORE 0.004049
K_330 X_NUC_4.L_CORE X_NUC_31.L_CORE 0.003987
K_331 X_NUC_4.L_CORE X_NUC_32.L_CORE 0.004054
K_332 X_NUC_4.L_CORE X_NUC_33.L_CORE 0.005255
K_333 X_NUC_4.L_CORE X_NUC_34.L_CORE 0.005282
K_334 X_NUC_4.L_CORE X_NUC_35.L_CORE 0.005245
K_335 X_NUC_4.L_CORE X_NUC_36.L_CORE 0.005159
K_336 X_NUC_4.L_CORE X_NUC_37.L_CORE 0.003480
K_337 X_NUC_4.L_CORE X_NUC_38.L_CORE 0.003437
K_338 X_NUC_4.L_CORE X_NUC_39.L_CORE 0.003425
K_339 X_NUC_4.L_CORE X_NUC_40.L_CORE 0.003448
K_340 X_NUC_4.L_CORE X_NUC_41.L_CORE 0.004044
K_341 X_NUC_4.L_CORE X_NUC_42.L_CORE 0.004089
K_342 X_NUC_4.L_CORE X_NUC_43.L_CORE 0.004011
K_343 X_NUC_4.L_CORE X_NUC_44.L_CORE 0.004045
K_344 X_NUC_4.L_CORE X_NUC_45.L_CORE 0.003843
K_345 X_NUC_4.L_CORE X_NUC_46.L_CORE 0.003808
K_346 X_NUC_4.L_CORE X_NUC_47.L_CORE 0.003806
K_347 X_NUC_4.L_CORE X_NUC_48.L_CORE 0.003773
K_348 X_NUC_4.L_CORE X_NUC_49.L_CORE 0.003143
K_349 X_NUC_4.L_CORE X_NUC_50.L_CORE 0.003130
K_350 X_NUC_4.L_CORE X_NUC_51.L_CORE 0.003098
K_351 X_NUC_4.L_CORE X_NUC_52.L_CORE 0.003131
K_352 X_NUC_4.L_CORE X_NUC_53.L_CORE 0.003850
K_353 X_NUC_4.L_CORE X_NUC_54.L_CORE 0.003883
K_354 X_NUC_4.L_CORE X_NUC_55.L_CORE 0.003830
K_355 X_NUC_4.L_CORE X_NUC_56.L_CORE 0.003815
K_356 X_NUC_4.L_CORE X_NUC_57.L_CORE 0.003082
K_357 X_NUC_4.L_CORE X_NUC_58.L_CORE 0.003052
K_358 X_NUC_4.L_CORE X_NUC_59.L_CORE 0.003042
K_359 X_NUC_4.L_CORE X_NUC_60.L_CORE 0.003044
K_360 X_NUC_4.L_CORE X_NUC_61.L_CORE 0.003096
K_361 X_NUC_4.L_CORE X_NUC_62.L_CORE 0.003105
K_362 X_NUC_4.L_CORE X_NUC_63.L_CORE 0.003062
K_363 X_NUC_4.L_CORE X_NUC_64.L_CORE 0.003087
K_364 X_NUC_4.L_CORE X_NUC_65.L_CORE 0.003304
K_365 X_NUC_4.L_CORE X_NUC_66.L_CORE 0.003299
K_366 X_NUC_4.L_CORE X_NUC_67.L_CORE 0.003279
K_367 X_NUC_4.L_CORE X_NUC_68.L_CORE 0.003258
K_368 X_NUC_4.L_CORE X_NUC_69.L_CORE 0.002765
K_369 X_NUC_4.L_CORE X_NUC_70.L_CORE 0.002750
K_370 X_NUC_4.L_CORE X_NUC_71.L_CORE 0.002729
K_371 X_NUC_4.L_CORE X_NUC_72.L_CORE 0.002744
K_372 X_NUC_4.L_CORE X_NUC_73.L_CORE 0.003033
K_373 X_NUC_4.L_CORE X_NUC_74.L_CORE 0.003047
K_374 X_NUC_4.L_CORE X_NUC_75.L_CORE 0.003008
K_375 X_NUC_4.L_CORE X_NUC_76.L_CORE 0.003013
K_376 X_NUC_4.L_CORE X_NUC_77.L_CORE 0.002823
K_377 X_NUC_4.L_CORE X_NUC_78.L_CORE 0.002809
K_378 X_NUC_4.L_CORE X_NUC_79.L_CORE 0.002793
K_379 X_NUC_4.L_CORE X_NUC_80.L_CORE 0.002789
K_380 X_NUC_4.L_CORE X_NUC_81.L_CORE 0.002677
K_381 X_NUC_4.L_CORE X_NUC_82.L_CORE 0.002674
K_382 X_NUC_4.L_CORE X_NUC_83.L_CORE 0.002647
K_383 X_NUC_4.L_CORE X_NUC_84.L_CORE 0.002660
K_384 X_NUC_4.L_CORE X_NUC_85.L_CORE 0.002756
K_385 X_NUC_4.L_CORE X_NUC_86.L_CORE 0.002755
K_386 X_NUC_4.L_CORE X_NUC_87.L_CORE 0.002730
K_387 X_NUC_4.L_CORE X_NUC_88.L_CORE 0.002730
K_388 X_NUC_4.L_CORE X_NUC_89.L_CORE 0.029763
K_389 X_NUC_4.L_CORE X_NUC_90.L_CORE 0.005540
K_390 X_NUC_4.L_CORE X_NUC_91.L_CORE 0.005688
K_391 X_NUC_4.L_CORE X_NUC_92.L_CORE 0.005890
K_392 X_NUC_4.L_CORE X_NUC_93.L_CORE 0.003596
K_393 X_NUC_4.L_CORE X_NUC_94.L_CORE 0.004798
K_394 X_NUC_4.L_CORE X_NUC_95.L_CORE 0.003511
K_395 X_NUC_4.L_CORE X_NUC_96.L_CORE 0.003184
K_396 X_NUC_4.L_CORE X_NUC_97.L_CORE 0.003727
K_397 X_NUC_4.L_CORE X_NUC_98.L_CORE 0.002769
K_398 X_NUC_4.L_CORE X_NUC_99.L_CORE 0.003034
K_399 X_NUC_4.L_CORE X_NUC_100.L_CORE 0.002867
K_400 X_NUC_4.L_CORE X_NUC_101.L_CORE 0.002525
K_401 X_NUC_4.L_CORE X_NUC_102.L_CORE 0.002720
K_402 X_NUC_4.L_CORE X_NUC_103.L_CORE 0.002452
K_403 X_NUC_5.L_CORE X_NUC_6.L_CORE 0.207973
K_404 X_NUC_5.L_CORE X_NUC_7.L_CORE 0.207973
K_405 X_NUC_5.L_CORE X_NUC_8.L_CORE 0.207973
K_406 X_NUC_5.L_CORE X_NUC_9.L_CORE 0.004888
K_407 X_NUC_5.L_CORE X_NUC_10.L_CORE 0.004997
K_408 X_NUC_5.L_CORE X_NUC_11.L_CORE 0.004912
K_409 X_NUC_5.L_CORE X_NUC_12.L_CORE 0.004955
K_410 X_NUC_5.L_CORE X_NUC_13.L_CORE 0.005988
K_411 X_NUC_5.L_CORE X_NUC_14.L_CORE 0.006068
K_412 X_NUC_5.L_CORE X_NUC_15.L_CORE 0.006076
K_413 X_NUC_5.L_CORE X_NUC_16.L_CORE 0.005927
K_414 X_NUC_5.L_CORE X_NUC_17.L_CORE 0.007489
K_415 X_NUC_5.L_CORE X_NUC_18.L_CORE 0.007500
K_416 X_NUC_5.L_CORE X_NUC_19.L_CORE 0.007301
K_417 X_NUC_5.L_CORE X_NUC_20.L_CORE 0.007542
K_418 X_NUC_5.L_CORE X_NUC_21.L_CORE 0.003689
K_419 X_NUC_5.L_CORE X_NUC_22.L_CORE 0.003753
K_420 X_NUC_5.L_CORE X_NUC_23.L_CORE 0.003713
K_421 X_NUC_5.L_CORE X_NUC_24.L_CORE 0.003703
K_422 X_NUC_5.L_CORE X_NUC_25.L_CORE 0.007249
K_423 X_NUC_5.L_CORE X_NUC_26.L_CORE 0.007146
K_424 X_NUC_5.L_CORE X_NUC_27.L_CORE 0.007166
K_425 X_NUC_5.L_CORE X_NUC_28.L_CORE 0.007009
K_426 X_NUC_5.L_CORE X_NUC_29.L_CORE 0.004000
K_427 X_NUC_5.L_CORE X_NUC_30.L_CORE 0.004046
K_428 X_NUC_5.L_CORE X_NUC_31.L_CORE 0.003974
K_429 X_NUC_5.L_CORE X_NUC_32.L_CORE 0.004026
K_430 X_NUC_5.L_CORE X_NUC_33.L_CORE 0.003632
K_431 X_NUC_5.L_CORE X_NUC_34.L_CORE 0.003672
K_432 X_NUC_5.L_CORE X_NUC_35.L_CORE 0.003652
K_433 X_NUC_5.L_CORE X_NUC_36.L_CORE 0.003612
K_434 X_NUC_5.L_CORE X_NUC_37.L_CORE 0.005734
K_435 X_NUC_5.L_CORE X_NUC_38.L_CORE 0.005662
K_436 X_NUC_5.L_CORE X_NUC_39.L_CORE 0.005582
K_437 X_NUC_5.L_CORE X_NUC_40.L_CORE 0.005641
K_438 X_NUC_5.L_CORE X_NUC_41.L_CORE 0.003086
K_439 X_NUC_5.L_CORE X_NUC_42.L_CORE 0.003126
K_440 X_NUC_5.L_CORE X_NUC_43.L_CORE 0.003086
K_441 X_NUC_5.L_CORE X_NUC_44.L_CORE 0.003094
K_442 X_NUC_5.L_CORE X_NUC_45.L_CORE 0.004056
K_443 X_NUC_5.L_CORE X_NUC_46.L_CORE 0.004058
K_444 X_NUC_5.L_CORE X_NUC_47.L_CORE 0.004045
K_445 X_NUC_5.L_CORE X_NUC_48.L_CORE 0.003991
K_446 X_NUC_5.L_CORE X_NUC_49.L_CORE 0.003746
K_447 X_NUC_5.L_CORE X_NUC_50.L_CORE 0.003757
K_448 X_NUC_5.L_CORE X_NUC_51.L_CORE 0.003695
K_449 X_NUC_5.L_CORE X_NUC_52.L_CORE 0.003739
K_450 X_NUC_5.L_CORE X_NUC_53.L_CORE 0.002895
K_451 X_NUC_5.L_CORE X_NUC_54.L_CORE 0.002925
K_452 X_NUC_5.L_CORE X_NUC_55.L_CORE 0.002898
K_453 X_NUC_5.L_CORE X_NUC_56.L_CORE 0.002886
K_454 X_NUC_5.L_CORE X_NUC_57.L_CORE 0.004100
K_455 X_NUC_5.L_CORE X_NUC_58.L_CORE 0.004072
K_456 X_NUC_5.L_CORE X_NUC_59.L_CORE 0.004040
K_457 X_NUC_5.L_CORE X_NUC_60.L_CORE 0.004029
K_458 X_NUC_5.L_CORE X_NUC_61.L_CORE 0.002898
K_459 X_NUC_5.L_CORE X_NUC_62.L_CORE 0.002922
K_460 X_NUC_5.L_CORE X_NUC_63.L_CORE 0.002881
K_461 X_NUC_5.L_CORE X_NUC_64.L_CORE 0.002897
K_462 X_NUC_5.L_CORE X_NUC_65.L_CORE 0.003022
K_463 X_NUC_5.L_CORE X_NUC_66.L_CORE 0.003036
K_464 X_NUC_5.L_CORE X_NUC_67.L_CORE 0.003015
K_465 X_NUC_5.L_CORE X_NUC_68.L_CORE 0.002993
K_466 X_NUC_5.L_CORE X_NUC_69.L_CORE 0.003366
K_467 X_NUC_5.L_CORE X_NUC_70.L_CORE 0.003362
K_468 X_NUC_5.L_CORE X_NUC_71.L_CORE 0.003319
K_469 X_NUC_5.L_CORE X_NUC_72.L_CORE 0.003337
K_470 X_NUC_5.L_CORE X_NUC_73.L_CORE 0.002635
K_471 X_NUC_5.L_CORE X_NUC_74.L_CORE 0.002655
K_472 X_NUC_5.L_CORE X_NUC_75.L_CORE 0.002627
K_473 X_NUC_5.L_CORE X_NUC_76.L_CORE 0.002626
K_474 X_NUC_5.L_CORE X_NUC_77.L_CORE 0.003071
K_475 X_NUC_5.L_CORE X_NUC_78.L_CORE 0.003072
K_476 X_NUC_5.L_CORE X_NUC_79.L_CORE 0.003046
K_477 X_NUC_5.L_CORE X_NUC_80.L_CORE 0.003035
K_478 X_NUC_5.L_CORE X_NUC_81.L_CORE 0.002780
K_479 X_NUC_5.L_CORE X_NUC_82.L_CORE 0.002791
K_480 X_NUC_5.L_CORE X_NUC_83.L_CORE 0.002757
K_481 X_NUC_5.L_CORE X_NUC_84.L_CORE 0.002766
K_482 X_NUC_5.L_CORE X_NUC_85.L_CORE 0.002660
K_483 X_NUC_5.L_CORE X_NUC_86.L_CORE 0.002671
K_484 X_NUC_5.L_CORE X_NUC_87.L_CORE 0.002645
K_485 X_NUC_5.L_CORE X_NUC_88.L_CORE 0.002641
K_486 X_NUC_5.L_CORE X_NUC_89.L_CORE 0.005975
K_487 X_NUC_5.L_CORE X_NUC_90.L_CORE 0.024655
K_488 X_NUC_5.L_CORE X_NUC_91.L_CORE 0.004090
K_489 X_NUC_5.L_CORE X_NUC_92.L_CORE 0.004788
K_490 X_NUC_5.L_CORE X_NUC_93.L_CORE 0.005490
K_491 X_NUC_5.L_CORE X_NUC_94.L_CORE 0.003066
K_492 X_NUC_5.L_CORE X_NUC_95.L_CORE 0.004915
K_493 X_NUC_5.L_CORE X_NUC_96.L_CORE 0.003207
K_494 X_NUC_5.L_CORE X_NUC_97.L_CORE 0.002942
K_495 X_NUC_5.L_CORE X_NUC_98.L_CORE 0.003828
K_496 X_NUC_5.L_CORE X_NUC_99.L_CORE 0.002567
K_497 X_NUC_5.L_CORE X_NUC_100.L_CORE 0.003000
K_498 X_NUC_5.L_CORE X_NUC_101.L_CORE 0.002810
K_499 X_NUC_5.L_CORE X_NUC_102.L_CORE 0.002441
K_500 X_NUC_5.L_CORE X_NUC_103.L_CORE 0.002661
K_501 X_NUC_6.L_CORE X_NUC_7.L_CORE 0.207973
K_502 X_NUC_6.L_CORE X_NUC_8.L_CORE 0.207973
K_503 X_NUC_6.L_CORE X_NUC_9.L_CORE 0.004783
K_504 X_NUC_6.L_CORE X_NUC_10.L_CORE 0.004888
K_505 X_NUC_6.L_CORE X_NUC_11.L_CORE 0.004808
K_506 X_NUC_6.L_CORE X_NUC_12.L_CORE 0.004848
K_507 X_NUC_6.L_CORE X_NUC_13.L_CORE 0.005906
K_508 X_NUC_6.L_CORE X_NUC_14.L_CORE 0.005988
K_509 X_NUC_6.L_CORE X_NUC_15.L_CORE 0.005993
K_510 X_NUC_6.L_CORE X_NUC_16.L_CORE 0.005850
K_511 X_NUC_6.L_CORE X_NUC_17.L_CORE 0.007468
K_512 X_NUC_6.L_CORE X_NUC_18.L_CORE 0.007489
K_513 X_NUC_6.L_CORE X_NUC_19.L_CORE 0.007286
K_514 X_NUC_6.L_CORE X_NUC_20.L_CORE 0.007526
K_515 X_NUC_6.L_CORE X_NUC_21.L_CORE 0.003628
K_516 X_NUC_6.L_CORE X_NUC_22.L_CORE 0.003689
K_517 X_NUC_6.L_CORE X_NUC_23.L_CORE 0.003651
K_518 X_NUC_6.L_CORE X_NUC_24.L_CORE 0.003642
K_519 X_NUC_6.L_CORE X_NUC_25.L_CORE 0.007347
K_520 X_NUC_6.L_CORE X_NUC_26.L_CORE 0.007249
K_521 X_NUC_6.L_CORE X_NUC_27.L_CORE 0.007266
K_522 X_NUC_6.L_CORE X_NUC_28.L_CORE 0.007102
K_523 X_NUC_6.L_CORE X_NUC_29.L_CORE 0.003953
K_524 X_NUC_6.L_CORE X_NUC_30.L_CORE 0.004000
K_525 X_NUC_6.L_CORE X_NUC_31.L_CORE 0.003929
K_526 X_NUC_6.L_CORE X_NUC_32.L_CORE 0.003979
K_527 X_NUC_6.L_CORE X_NUC_33.L_CORE 0.003591
K_528 X_NUC_6.L_CORE X_NUC_34.L_CORE 0.003632
K_529 X_NUC_6.L_CORE X_NUC_35.L_CORE 0.003611
K_530 X_NUC_6.L_CORE X_NUC_36.L_CORE 0.003573
K_531 X_NUC_6.L_CORE X_NUC_37.L_CORE 0.005805
K_532 X_NUC_6.L_CORE X_NUC_38.L_CORE 0.005734
K_533 X_NUC_6.L_CORE X_NUC_39.L_CORE 0.005649
K_534 X_NUC_6.L_CORE X_NUC_40.L_CORE 0.005710
K_535 X_NUC_6.L_CORE X_NUC_41.L_CORE 0.003048
K_536 X_NUC_6.L_CORE X_NUC_42.L_CORE 0.003086
K_537 X_NUC_6.L_CORE X_NUC_43.L_CORE 0.003047
K_538 X_NUC_6.L_CORE X_NUC_44.L_CORE 0.003055
K_539 X_NUC_6.L_CORE X_NUC_45.L_CORE 0.004053
K_540 X_NUC_6.L_CORE X_NUC_46.L_CORE 0.004056
K_541 X_NUC_6.L_CORE X_NUC_47.L_CORE 0.004042
K_542 X_NUC_6.L_CORE X_NUC_48.L_CORE 0.003988
K_543 X_NUC_6.L_CORE X_NUC_49.L_CORE 0.003733
K_544 X_NUC_6.L_CORE X_NUC_50.L_CORE 0.003746
K_545 X_NUC_6.L_CORE X_NUC_51.L_CORE 0.003684
K_546 X_NUC_6.L_CORE X_NUC_52.L_CORE 0.003728
K_547 X_NUC_6.L_CORE X_NUC_53.L_CORE 0.002865
K_548 X_NUC_6.L_CORE X_NUC_54.L_CORE 0.002895
K_549 X_NUC_6.L_CORE X_NUC_55.L_CORE 0.002869
K_550 X_NUC_6.L_CORE X_NUC_56.L_CORE 0.002857
K_551 X_NUC_6.L_CORE X_NUC_57.L_CORE 0.004127
K_552 X_NUC_6.L_CORE X_NUC_58.L_CORE 0.004100
K_553 X_NUC_6.L_CORE X_NUC_59.L_CORE 0.004066
K_554 X_NUC_6.L_CORE X_NUC_60.L_CORE 0.004055
K_555 X_NUC_6.L_CORE X_NUC_61.L_CORE 0.002874
K_556 X_NUC_6.L_CORE X_NUC_62.L_CORE 0.002898
K_557 X_NUC_6.L_CORE X_NUC_63.L_CORE 0.002858
K_558 X_NUC_6.L_CORE X_NUC_64.L_CORE 0.002874
K_559 X_NUC_6.L_CORE X_NUC_65.L_CORE 0.003007
K_560 X_NUC_6.L_CORE X_NUC_66.L_CORE 0.003022
K_561 X_NUC_6.L_CORE X_NUC_67.L_CORE 0.003001
K_562 X_NUC_6.L_CORE X_NUC_68.L_CORE 0.002979
K_563 X_NUC_6.L_CORE X_NUC_69.L_CORE 0.003368
K_564 X_NUC_6.L_CORE X_NUC_70.L_CORE 0.003366
K_565 X_NUC_6.L_CORE X_NUC_71.L_CORE 0.003322
K_566 X_NUC_6.L_CORE X_NUC_72.L_CORE 0.003340
K_567 X_NUC_6.L_CORE X_NUC_73.L_CORE 0.002614
K_568 X_NUC_6.L_CORE X_NUC_74.L_CORE 0.002635
K_569 X_NUC_6.L_CORE X_NUC_75.L_CORE 0.002606
K_570 X_NUC_6.L_CORE X_NUC_76.L_CORE 0.002606
K_571 X_NUC_6.L_CORE X_NUC_77.L_CORE 0.003070
K_572 X_NUC_6.L_CORE X_NUC_78.L_CORE 0.003071
K_573 X_NUC_6.L_CORE X_NUC_79.L_CORE 0.003046
K_574 X_NUC_6.L_CORE X_NUC_80.L_CORE 0.003034
K_575 X_NUC_6.L_CORE X_NUC_81.L_CORE 0.002769
K_576 X_NUC_6.L_CORE X_NUC_82.L_CORE 0.002780