* Applied Vacuum Engineering (AVE) - SPICE Netlist
* Element: Ruthenium-101 (Z=44, A=101)
* Auto-generated topological mutual impedance array
* Nodes: 101



* -----------------------------------------------------------------
* NUCLEON (Baseline 6^3_2 Topological Defect)
* -----------------------------------------------------------------
.SUBCKT NUCLEON IN OUT
L_CORE IN OUT 1uH
C_CORE IN OUT 1pF
.ENDS NUCLEON



* -----------------------------------------------------------------
* MACROSCOPIC TOPOLOGY (Nucleon Array)
* -----------------------------------------------------------------
V_STIM NODE_1 0 AC 1 PULSE(0 100k 10n 1n 1n 50n 100n)

X_NUC_1 NODE_1 0 NUCLEON
X_NUC_2 NODE_2 0 NUCLEON
X_NUC_3 NODE_3 0 NUCLEON
X_NUC_4 NODE_4 0 NUCLEON
X_NUC_5 NODE_5 0 NUCLEON
X_NUC_6 NODE_6 0 NUCLEON
X_NUC_7 NODE_7 0 NUCLEON
X_NUC_8 NODE_8 0 NUCLEON
X_NUC_9 NODE_9 0 NUCLEON
X_NUC_10 NODE_10 0 NUCLEON
X_NUC_11 NODE_11 0 NUCLEON
X_NUC_12 NODE_12 0 NUCLEON
X_NUC_13 NODE_13 0 NUCLEON
X_NUC_14 NODE_14 0 NUCLEON
X_NUC_15 NODE_15 0 NUCLEON
X_NUC_16 NODE_16 0 NUCLEON
X_NUC_17 NODE_17 0 NUCLEON
X_NUC_18 NODE_18 0 NUCLEON
X_NUC_19 NODE_19 0 NUCLEON
X_NUC_20 NODE_20 0 NUCLEON
X_NUC_21 NODE_21 0 NUCLEON
X_NUC_22 NODE_22 0 NUCLEON
X_NUC_23 NODE_23 0 NUCLEON
X_NUC_24 NODE_24 0 NUCLEON
X_NUC_25 NODE_25 0 NUCLEON
X_NUC_26 NODE_26 0 NUCLEON
X_NUC_27 NODE_27 0 NUCLEON
X_NUC_28 NODE_28 0 NUCLEON
X_NUC_29 NODE_29 0 NUCLEON
X_NUC_30 NODE_30 0 NUCLEON
X_NUC_31 NODE_31 0 NUCLEON
X_NUC_32 NODE_32 0 NUCLEON
X_NUC_33 NODE_33 0 NUCLEON
X_NUC_34 NODE_34 0 NUCLEON
X_NUC_35 NODE_35 0 NUCLEON
X_NUC_36 NODE_36 0 NUCLEON
X_NUC_37 NODE_37 0 NUCLEON
X_NUC_38 NODE_38 0 NUCLEON
X_NUC_39 NODE_39 0 NUCLEON
X_NUC_40 NODE_40 0 NUCLEON
X_NUC_41 NODE_41 0 NUCLEON
X_NUC_42 NODE_42 0 NUCLEON
X_NUC_43 NODE_43 0 NUCLEON
X_NUC_44 NODE_44 0 NUCLEON
X_NUC_45 NODE_45 0 NUCLEON
X_NUC_46 NODE_46 0 NUCLEON
X_NUC_47 NODE_47 0 NUCLEON
X_NUC_48 NODE_48 0 NUCLEON
X_NUC_49 NODE_49 0 NUCLEON
X_NUC_50 NODE_50 0 NUCLEON
X_NUC_51 NODE_51 0 NUCLEON
X_NUC_52 NODE_52 0 NUCLEON
X_NUC_53 NODE_53 0 NUCLEON
X_NUC_54 NODE_54 0 NUCLEON
X_NUC_55 NODE_55 0 NUCLEON
X_NUC_56 NODE_56 0 NUCLEON
X_NUC_57 NODE_57 0 NUCLEON
X_NUC_58 NODE_58 0 NUCLEON
X_NUC_59 NODE_59 0 NUCLEON
X_NUC_60 NODE_60 0 NUCLEON
X_NUC_61 NODE_61 0 NUCLEON
X_NUC_62 NODE_62 0 NUCLEON
X_NUC_63 NODE_63 0 NUCLEON
X_NUC_64 NODE_64 0 NUCLEON
X_NUC_65 NODE_65 0 NUCLEON
X_NUC_66 NODE_66 0 NUCLEON
X_NUC_67 NODE_67 0 NUCLEON
X_NUC_68 NODE_68 0 NUCLEON
X_NUC_69 NODE_69 0 NUCLEON
X_NUC_70 NODE_70 0 NUCLEON
X_NUC_71 NODE_71 0 NUCLEON
X_NUC_72 NODE_72 0 NUCLEON
X_NUC_73 NODE_73 0 NUCLEON
X_NUC_74 NODE_74 0 NUCLEON
X_NUC_75 NODE_75 0 NUCLEON
X_NUC_76 NODE_76 0 NUCLEON
X_NUC_77 NODE_77 0 NUCLEON
X_NUC_78 NODE_78 0 NUCLEON
X_NUC_79 NODE_79 0 NUCLEON
X_NUC_80 NODE_80 0 NUCLEON
X_NUC_81 NODE_81 0 NUCLEON
X_NUC_82 NODE_82 0 NUCLEON
X_NUC_83 NODE_83 0 NUCLEON
X_NUC_84 NODE_84 0 NUCLEON
X_NUC_85 NODE_85 0 NUCLEON
X_NUC_86 NODE_86 0 NUCLEON
X_NUC_87 NODE_87 0 NUCLEON
X_NUC_88 NODE_88 0 NUCLEON
X_NUC_89 NODE_89 0 NUCLEON
X_NUC_90 NODE_90 0 NUCLEON
X_NUC_91 NODE_91 0 NUCLEON
X_NUC_92 NODE_92 0 NUCLEON
X_NUC_93 NODE_93 0 NUCLEON
X_NUC_94 NODE_94 0 NUCLEON
X_NUC_95 NODE_95 0 NUCLEON
X_NUC_96 NODE_96 0 NUCLEON
X_NUC_97 NODE_97 0 NUCLEON
X_NUC_98 NODE_98 0 NUCLEON
X_NUC_99 NODE_99 0 NUCLEON
X_NUC_100 NODE_100 0 NUCLEON
X_NUC_101 NODE_101 0 NUCLEON


* -----------------------------------------------------------------
* SPATIAL MUTUAL INDUCTANCE (K-FACTORS)
* -----------------------------------------------------------------
K_1 X_NUC_1.L_CORE X_NUC_2.L_CORE 0.207973
K_2 X_NUC_1.L_CORE X_NUC_3.L_CORE 0.207973
K_3 X_NUC_1.L_CORE X_NUC_4.L_CORE 0.207973
K_4 X_NUC_1.L_CORE X_NUC_5.L_CORE 0.007005
K_5 X_NUC_1.L_CORE X_NUC_6.L_CORE 0.006789
K_6 X_NUC_1.L_CORE X_NUC_7.L_CORE 0.006839
K_7 X_NUC_1.L_CORE X_NUC_8.L_CORE 0.006908
K_8 X_NUC_1.L_CORE X_NUC_9.L_CORE 0.007561
K_9 X_NUC_1.L_CORE X_NUC_10.L_CORE 0.007666
K_10 X_NUC_1.L_CORE X_NUC_11.L_CORE 0.007441
K_11 X_NUC_1.L_CORE X_NUC_12.L_CORE 0.007684
K_12 X_NUC_1.L_CORE X_NUC_13.L_CORE 0.008057
K_13 X_NUC_1.L_CORE X_NUC_14.L_CORE 0.007910
K_14 X_NUC_1.L_CORE X_NUC_15.L_CORE 0.008009
K_15 X_NUC_1.L_CORE X_NUC_16.L_CORE 0.007780
K_16 X_NUC_1.L_CORE X_NUC_17.L_CORE 0.004571
K_17 X_NUC_1.L_CORE X_NUC_18.L_CORE 0.004512
K_18 X_NUC_1.L_CORE X_NUC_19.L_CORE 0.004483
K_19 X_NUC_1.L_CORE X_NUC_20.L_CORE 0.004556
K_20 X_NUC_1.L_CORE X_NUC_21.L_CORE 0.006789
K_21 X_NUC_1.L_CORE X_NUC_22.L_CORE 0.006973
K_22 X_NUC_1.L_CORE X_NUC_23.L_CORE 0.006781
K_23 X_NUC_1.L_CORE X_NUC_24.L_CORE 0.006788
K_24 X_NUC_1.L_CORE X_NUC_25.L_CORE 0.004546
K_25 X_NUC_1.L_CORE X_NUC_26.L_CORE 0.004462
K_26 X_NUC_1.L_CORE X_NUC_27.L_CORE 0.004481
K_27 X_NUC_1.L_CORE X_NUC_28.L_CORE 0.004461
K_28 X_NUC_1.L_CORE X_NUC_29.L_CORE 0.004124
K_29 X_NUC_1.L_CORE X_NUC_30.L_CORE 0.004128
K_30 X_NUC_1.L_CORE X_NUC_31.L_CORE 0.004063
K_31 X_NUC_1.L_CORE X_NUC_32.L_CORE 0.004132
K_32 X_NUC_1.L_CORE X_NUC_33.L_CORE 0.005247
K_33 X_NUC_1.L_CORE X_NUC_34.L_CORE 0.005272
K_34 X_NUC_1.L_CORE X_NUC_35.L_CORE 0.005236
K_35 X_NUC_1.L_CORE X_NUC_36.L_CORE 0.005150
K_36 X_NUC_1.L_CORE X_NUC_37.L_CORE 0.003507
K_37 X_NUC_1.L_CORE X_NUC_38.L_CORE 0.003463
K_38 X_NUC_1.L_CORE X_NUC_39.L_CORE 0.003452
K_39 X_NUC_1.L_CORE X_NUC_40.L_CORE 0.003474
K_40 X_NUC_1.L_CORE X_NUC_41.L_CORE 0.004114
K_41 X_NUC_1.L_CORE X_NUC_42.L_CORE 0.004160
K_42 X_NUC_1.L_CORE X_NUC_43.L_CORE 0.004079
K_43 X_NUC_1.L_CORE X_NUC_44.L_CORE 0.004113
K_44 X_NUC_1.L_CORE X_NUC_45.L_CORE 0.003838
K_45 X_NUC_1.L_CORE X_NUC_46.L_CORE 0.003803
K_46 X_NUC_1.L_CORE X_NUC_47.L_CORE 0.003801
K_47 X_NUC_1.L_CORE X_NUC_48.L_CORE 0.003768
K_48 X_NUC_1.L_CORE X_NUC_49.L_CORE 0.003185
K_49 X_NUC_1.L_CORE X_NUC_50.L_CORE 0.003171
K_50 X_NUC_1.L_CORE X_NUC_51.L_CORE 0.003139
K_51 X_NUC_1.L_CORE X_NUC_52.L_CORE 0.003172
K_52 X_NUC_1.L_CORE X_NUC_53.L_CORE 0.003880
K_53 X_NUC_1.L_CORE X_NUC_54.L_CORE 0.003912
K_54 X_NUC_1.L_CORE X_NUC_55.L_CORE 0.003860
K_55 X_NUC_1.L_CORE X_NUC_56.L_CORE 0.003844
K_56 X_NUC_1.L_CORE X_NUC_57.L_CORE 0.003096
K_57 X_NUC_1.L_CORE X_NUC_58.L_CORE 0.003065
K_58 X_NUC_1.L_CORE X_NUC_59.L_CORE 0.003056
K_59 X_NUC_1.L_CORE X_NUC_60.L_CORE 0.003057
K_60 X_NUC_1.L_CORE X_NUC_61.L_CORE 0.003140
K_61 X_NUC_1.L_CORE X_NUC_62.L_CORE 0.003149
K_62 X_NUC_1.L_CORE X_NUC_63.L_CORE 0.003105
K_63 X_NUC_1.L_CORE X_NUC_64.L_CORE 0.003131
K_64 X_NUC_1.L_CORE X_NUC_65.L_CORE 0.003314
K_65 X_NUC_1.L_CORE X_NUC_66.L_CORE 0.003309
K_66 X_NUC_1.L_CORE X_NUC_67.L_CORE 0.003288
K_67 X_NUC_1.L_CORE X_NUC_68.L_CORE 0.003267
K_68 X_NUC_1.L_CORE X_NUC_69.L_CORE 0.002791
K_69 X_NUC_1.L_CORE X_NUC_70.L_CORE 0.002775
K_70 X_NUC_1.L_CORE X_NUC_71.L_CORE 0.002754
K_71 X_NUC_1.L_CORE X_NUC_72.L_CORE 0.002769
K_72 X_NUC_1.L_CORE X_NUC_73.L_CORE 0.003065
K_73 X_NUC_1.L_CORE X_NUC_74.L_CORE 0.003078
K_74 X_NUC_1.L_CORE X_NUC_75.L_CORE 0.003039
K_75 X_NUC_1.L_CORE X_NUC_76.L_CORE 0.003044
K_76 X_NUC_1.L_CORE X_NUC_77.L_CORE 0.002837
K_77 X_NUC_1.L_CORE X_NUC_78.L_CORE 0.002823
K_78 X_NUC_1.L_CORE X_NUC_79.L_CORE 0.002807
K_79 X_NUC_1.L_CORE X_NUC_80.L_CORE 0.002803
K_80 X_NUC_1.L_CORE X_NUC_81.L_CORE 0.002705
K_81 X_NUC_1.L_CORE X_NUC_82.L_CORE 0.002702
K_82 X_NUC_1.L_CORE X_NUC_83.L_CORE 0.002674
K_83 X_NUC_1.L_CORE X_NUC_84.L_CORE 0.002687
K_84 X_NUC_1.L_CORE X_NUC_85.L_CORE 0.002777
K_85 X_NUC_1.L_CORE X_NUC_86.L_CORE 0.002776
K_86 X_NUC_1.L_CORE X_NUC_87.L_CORE 0.002750
K_87 X_NUC_1.L_CORE X_NUC_88.L_CORE 0.002750
K_88 X_NUC_1.L_CORE X_NUC_89.L_CORE 0.029823
K_89 X_NUC_1.L_CORE X_NUC_90.L_CORE 0.005312
K_90 X_NUC_1.L_CORE X_NUC_91.L_CORE 0.005499
K_91 X_NUC_1.L_CORE X_NUC_92.L_CORE 0.005385
K_92 X_NUC_1.L_CORE X_NUC_93.L_CORE 0.003459
K_93 X_NUC_1.L_CORE X_NUC_94.L_CORE 0.004445
K_94 X_NUC_1.L_CORE X_NUC_95.L_CORE 0.003301
K_95 X_NUC_1.L_CORE X_NUC_96.L_CORE 0.003048
K_96 X_NUC_1.L_CORE X_NUC_97.L_CORE 0.003400
K_97 X_NUC_1.L_CORE X_NUC_98.L_CORE 0.002651
K_98 X_NUC_1.L_CORE X_NUC_99.L_CORE 0.002835
K_99 X_NUC_1.L_CORE X_NUC_100.L_CORE 0.002660
K_100 X_NUC_1.L_CORE X_NUC_101.L_CORE 0.002452
K_101 X_NUC_2.L_CORE X_NUC_3.L_CORE 0.207973
K_102 X_NUC_2.L_CORE X_NUC_4.L_CORE 0.207973
K_103 X_NUC_2.L_CORE X_NUC_5.L_CORE 0.007235
K_104 X_NUC_2.L_CORE X_NUC_6.L_CORE 0.007005
K_105 X_NUC_2.L_CORE X_NUC_7.L_CORE 0.007057
K_106 X_NUC_2.L_CORE X_NUC_8.L_CORE 0.007132
K_107 X_NUC_2.L_CORE X_NUC_9.L_CORE 0.007450
K_108 X_NUC_2.L_CORE X_NUC_10.L_CORE 0.007561
K_109 X_NUC_2.L_CORE X_NUC_11.L_CORE 0.007340
K_110 X_NUC_2.L_CORE X_NUC_12.L_CORE 0.007573
K_111 X_NUC_2.L_CORE X_NUC_13.L_CORE 0.008200
K_112 X_NUC_2.L_CORE X_NUC_14.L_CORE 0.008057
K_113 X_NUC_2.L_CORE X_NUC_15.L_CORE 0.008156
K_114 X_NUC_2.L_CORE X_NUC_16.L_CORE 0.007914
K_115 X_NUC_2.L_CORE X_NUC_17.L_CORE 0.004629
K_116 X_NUC_2.L_CORE X_NUC_18.L_CORE 0.004571
K_117 X_NUC_2.L_CORE X_NUC_19.L_CORE 0.004539
K_118 X_NUC_2.L_CORE X_NUC_20.L_CORE 0.004615
K_119 X_NUC_2.L_CORE X_NUC_21.L_CORE 0.006613
K_120 X_NUC_2.L_CORE X_NUC_22.L_CORE 0.006789
K_121 X_NUC_2.L_CORE X_NUC_23.L_CORE 0.006608
K_122 X_NUC_2.L_CORE X_NUC_24.L_CORE 0.006614
K_123 X_NUC_2.L_CORE X_NUC_25.L_CORE 0.004633
K_124 X_NUC_2.L_CORE X_NUC_26.L_CORE 0.004546
K_125 X_NUC_2.L_CORE X_NUC_27.L_CORE 0.004565
K_126 X_NUC_2.L_CORE X_NUC_28.L_CORE 0.004544
K_127 X_NUC_2.L_CORE X_NUC_29.L_CORE 0.004118
K_128 X_NUC_2.L_CORE X_NUC_30.L_CORE 0.004124
K_129 X_NUC_2.L_CORE X_NUC_31.L_CORE 0.004058
K_130 X_NUC_2.L_CORE X_NUC_32.L_CORE 0.004127
K_131 X_NUC_2.L_CORE X_NUC_33.L_CORE 0.005220
K_132 X_NUC_2.L_CORE X_NUC_34.L_CORE 0.005247
K_133 X_NUC_2.L_CORE X_NUC_35.L_CORE 0.005210
K_134 X_NUC_2.L_CORE X_NUC_36.L_CORE 0.005126
K_135 X_NUC_2.L_CORE X_NUC_37.L_CORE 0.003551
K_136 X_NUC_2.L_CORE X_NUC_38.L_CORE 0.003507
K_137 X_NUC_2.L_CORE X_NUC_39.L_CORE 0.003494
K_138 X_NUC_2.L_CORE X_NUC_40.L_CORE 0.003517
K_139 X_NUC_2.L_CORE X_NUC_41.L_CORE 0.004068
K_140 X_NUC_2.L_CORE X_NUC_42.L_CORE 0.004114
K_141 X_NUC_2.L_CORE X_NUC_43.L_CORE 0.004035
K_142 X_NUC_2.L_CORE X_NUC_44.L_CORE 0.004068
K_143 X_NUC_2.L_CORE X_NUC_45.L_CORE 0.003872
K_144 X_NUC_2.L_CORE X_NUC_46.L_CORE 0.003838
K_145 X_NUC_2.L_CORE X_NUC_47.L_CORE 0.003835
K_146 X_NUC_2.L_CORE X_NUC_48.L_CORE 0.003801
K_147 X_NUC_2.L_CORE X_NUC_49.L_CORE 0.003198
K_148 X_NUC_2.L_CORE X_NUC_50.L_CORE 0.003185
K_149 X_NUC_2.L_CORE X_NUC_51.L_CORE 0.003152
K_150 X_NUC_2.L_CORE X_NUC_52.L_CORE 0.003186
K_151 X_NUC_2.L_CORE X_NUC_53.L_CORE 0.003848
K_152 X_NUC_2.L_CORE X_NUC_54.L_CORE 0.003880
K_153 X_NUC_2.L_CORE X_NUC_55.L_CORE 0.003829
K_154 X_NUC_2.L_CORE X_NUC_56.L_CORE 0.003813
K_155 X_NUC_2.L_CORE X_NUC_57.L_CORE 0.003127
K_156 X_NUC_2.L_CORE X_NUC_58.L_CORE 0.003096
K_157 X_NUC_2.L_CORE X_NUC_59.L_CORE 0.003086
K_158 X_NUC_2.L_CORE X_NUC_60.L_CORE 0.003088
K_159 X_NUC_2.L_CORE X_NUC_61.L_CORE 0.003130
K_160 X_NUC_2.L_CORE X_NUC_62.L_CORE 0.003140
K_161 X_NUC_2.L_CORE X_NUC_63.L_CORE 0.003096
K_162 X_NUC_2.L_CORE X_NUC_64.L_CORE 0.003121
K_163 X_NUC_2.L_CORE X_NUC_65.L_CORE 0.003318
K_164 X_NUC_2.L_CORE X_NUC_66.L_CORE 0.003314
K_165 X_NUC_2.L_CORE X_NUC_67.L_CORE 0.003293
K_166 X_NUC_2.L_CORE X_NUC_68.L_CORE 0.003272
K_167 X_NUC_2.L_CORE X_NUC_69.L_CORE 0.002807
K_168 X_NUC_2.L_CORE X_NUC_70.L_CORE 0.002791
K_169 X_NUC_2.L_CORE X_NUC_71.L_CORE 0.002770
K_170 X_NUC_2.L_CORE X_NUC_72.L_CORE 0.002785
K_171 X_NUC_2.L_CORE X_NUC_73.L_CORE 0.003051
K_172 X_NUC_2.L_CORE X_NUC_74.L_CORE 0.003065
K_173 X_NUC_2.L_CORE X_NUC_75.L_CORE 0.003026
K_174 X_NUC_2.L_CORE X_NUC_76.L_CORE 0.003031
K_175 X_NUC_2.L_CORE X_NUC_77.L_CORE 0.002851
K_176 X_NUC_2.L_CORE X_NUC_78.L_CORE 0.002837
K_177 X_NUC_2.L_CORE X_NUC_79.L_CORE 0.002821
K_178 X_NUC_2.L_CORE X_NUC_80.L_CORE 0.002816
K_179 X_NUC_2.L_CORE X_NUC_81.L_CORE 0.002708
K_180 X_NUC_2.L_CORE X_NUC_82.L_CORE 0.002705
K_181 X_NUC_2.L_CORE X_NUC_83.L_CORE 0.002677
K_182 X_NUC_2.L_CORE X_NUC_84.L_CORE 0.002690
K_183 X_NUC_2.L_CORE X_NUC_85.L_CORE 0.002777
K_184 X_NUC_2.L_CORE X_NUC_86.L_CORE 0.002777
K_185 X_NUC_2.L_CORE X_NUC_87.L_CORE 0.002751
K_186 X_NUC_2.L_CORE X_NUC_88.L_CORE 0.002750
K_187 X_NUC_2.L_CORE X_NUC_89.L_CORE 0.027573
K_188 X_NUC_2.L_CORE X_NUC_90.L_CORE 0.005447
K_189 X_NUC_2.L_CORE X_NUC_91.L_CORE 0.005426
K_190 X_NUC_2.L_CORE X_NUC_92.L_CORE 0.005435
K_191 X_NUC_2.L_CORE X_NUC_93.L_CORE 0.003491
K_192 X_NUC_2.L_CORE X_NUC_94.L_CORE 0.004374
K_193 X_NUC_2.L_CORE X_NUC_95.L_CORE 0.003342
K_194 X_NUC_2.L_CORE X_NUC_96.L_CORE 0.003045
K_195 X_NUC_2.L_CORE X_NUC_97.L_CORE 0.003391
K_196 X_NUC_2.L_CORE X_NUC_98.L_CORE 0.002671
K_197 X_NUC_2.L_CORE X_NUC_99.L_CORE 0.002821
K_198 X_NUC_2.L_CORE X_NUC_100.L_CORE 0.002669
K_199 X_NUC_2.L_CORE X_NUC_101.L_CORE 0.002457
K_200 X_NUC_3.L_CORE X_NUC_4.L_CORE 0.207973
K_201 X_NUC_3.L_CORE X_NUC_5.L_CORE 0.007175
K_202 X_NUC_3.L_CORE X_NUC_6.L_CORE 0.006947
K_203 X_NUC_3.L_CORE X_NUC_7.L_CORE 0.007005
K_204 X_NUC_3.L_CORE X_NUC_8.L_CORE 0.007075
K_205 X_NUC_3.L_CORE X_NUC_9.L_CORE 0.007676
K_206 X_NUC_3.L_CORE X_NUC_10.L_CORE 0.007792
K_207 X_NUC_3.L_CORE X_NUC_11.L_CORE 0.007561
K_208 X_NUC_3.L_CORE X_NUC_12.L_CORE 0.007810
K_209 X_NUC_3.L_CORE X_NUC_13.L_CORE 0.008093
K_210 X_NUC_3.L_CORE X_NUC_14.L_CORE 0.007950
K_211 X_NUC_3.L_CORE X_NUC_15.L_CORE 0.008057
K_212 X_NUC_3.L_CORE X_NUC_16.L_CORE 0.007818
K_213 X_NUC_3.L_CORE X_NUC_17.L_CORE 0.004661
K_214 X_NUC_3.L_CORE X_NUC_18.L_CORE 0.004601
K_215 X_NUC_3.L_CORE X_NUC_19.L_CORE 0.004571
K_216 X_NUC_3.L_CORE X_NUC_20.L_CORE 0.004647
K_217 X_NUC_3.L_CORE X_NUC_21.L_CORE 0.006790
K_218 X_NUC_3.L_CORE X_NUC_22.L_CORE 0.006978
K_219 X_NUC_3.L_CORE X_NUC_23.L_CORE 0.006789
K_220 X_NUC_3.L_CORE X_NUC_24.L_CORE 0.006792
K_221 X_NUC_3.L_CORE X_NUC_25.L_CORE 0.004611
K_222 X_NUC_3.L_CORE X_NUC_26.L_CORE 0.004525
K_223 X_NUC_3.L_CORE X_NUC_27.L_CORE 0.004546
K_224 X_NUC_3.L_CORE X_NUC_28.L_CORE 0.004524
K_225 X_NUC_3.L_CORE X_NUC_29.L_CORE 0.004186
K_226 X_NUC_3.L_CORE X_NUC_30.L_CORE 0.004191
K_227 X_NUC_3.L_CORE X_NUC_31.L_CORE 0.004124
K_228 X_NUC_3.L_CORE X_NUC_32.L_CORE 0.004196
K_229 X_NUC_3.L_CORE X_NUC_33.L_CORE 0.005256
K_230 X_NUC_3.L_CORE X_NUC_34.L_CORE 0.005283
K_231 X_NUC_3.L_CORE X_NUC_35.L_CORE 0.005247
K_232 X_NUC_3.L_CORE X_NUC_36.L_CORE 0.005160
K_233 X_NUC_3.L_CORE X_NUC_37.L_CORE 0.003564
K_234 X_NUC_3.L_CORE X_NUC_38.L_CORE 0.003519
K_235 X_NUC_3.L_CORE X_NUC_39.L_CORE 0.003507
K_236 X_NUC_3.L_CORE X_NUC_40.L_CORE 0.003530
K_237 X_NUC_3.L_CORE X_NUC_41.L_CORE 0.004149
K_238 X_NUC_3.L_CORE X_NUC_42.L_CORE 0.004197
K_239 X_NUC_3.L_CORE X_NUC_43.L_CORE 0.004114
K_240 X_NUC_3.L_CORE X_NUC_44.L_CORE 0.004148
K_241 X_NUC_3.L_CORE X_NUC_45.L_CORE 0.003874
K_242 X_NUC_3.L_CORE X_NUC_46.L_CORE 0.003839
K_243 X_NUC_3.L_CORE X_NUC_47.L_CORE 0.003838
K_244 X_NUC_3.L_CORE X_NUC_48.L_CORE 0.003803
K_245 X_NUC_3.L_CORE X_NUC_49.L_CORE 0.003232
K_246 X_NUC_3.L_CORE X_NUC_50.L_CORE 0.003218
K_247 X_NUC_3.L_CORE X_NUC_51.L_CORE 0.003185
K_248 X_NUC_3.L_CORE X_NUC_52.L_CORE 0.003219
K_249 X_NUC_3.L_CORE X_NUC_53.L_CORE 0.003900
K_250 X_NUC_3.L_CORE X_NUC_54.L_CORE 0.003933
K_251 X_NUC_3.L_CORE X_NUC_55.L_CORE 0.003880
K_252 X_NUC_3.L_CORE X_NUC_56.L_CORE 0.003863
K_253 X_NUC_3.L_CORE X_NUC_57.L_CORE 0.003137
K_254 X_NUC_3.L_CORE X_NUC_58.L_CORE 0.003105
K_255 X_NUC_3.L_CORE X_NUC_59.L_CORE 0.003096
K_256 X_NUC_3.L_CORE X_NUC_60.L_CORE 0.003097
K_257 X_NUC_3.L_CORE X_NUC_61.L_CORE 0.003176
K_258 X_NUC_3.L_CORE X_NUC_62.L_CORE 0.003186
K_259 X_NUC_3.L_CORE X_NUC_63.L_CORE 0.003140
K_260 X_NUC_3.L_CORE X_NUC_64.L_CORE 0.003166
K_261 X_NUC_3.L_CORE X_NUC_65.L_CORE 0.003339
K_262 X_NUC_3.L_CORE X_NUC_66.L_CORE 0.003334
K_263 X_NUC_3.L_CORE X_NUC_67.L_CORE 0.003314
K_264 X_NUC_3.L_CORE X_NUC_68.L_CORE 0.003292
K_265 X_NUC_3.L_CORE X_NUC_69.L_CORE 0.002828
K_266 X_NUC_3.L_CORE X_NUC_70.L_CORE 0.002812
K_267 X_NUC_3.L_CORE X_NUC_71.L_CORE 0.002791
K_268 X_NUC_3.L_CORE X_NUC_72.L_CORE 0.002806
K_269 X_NUC_3.L_CORE X_NUC_73.L_CORE 0.003091
K_270 X_NUC_3.L_CORE X_NUC_74.L_CORE 0.003105
K_271 X_NUC_3.L_CORE X_NUC_75.L_CORE 0.003065
K_272 X_NUC_3.L_CORE X_NUC_76.L_CORE 0.003070
K_273 X_NUC_3.L_CORE X_NUC_77.L_CORE 0.002867
K_274 X_NUC_3.L_CORE X_NUC_78.L_CORE 0.002853
K_275 X_NUC_3.L_CORE X_NUC_79.L_CORE 0.002837
K_276 X_NUC_3.L_CORE X_NUC_80.L_CORE 0.002832
K_277 X_NUC_3.L_CORE X_NUC_81.L_CORE 0.002736
K_278 X_NUC_3.L_CORE X_NUC_82.L_CORE 0.002733
K_279 X_NUC_3.L_CORE X_NUC_83.L_CORE 0.002705
K_280 X_NUC_3.L_CORE X_NUC_84.L_CORE 0.002718
K_281 X_NUC_3.L_CORE X_NUC_85.L_CORE 0.002803
K_282 X_NUC_3.L_CORE X_NUC_86.L_CORE 0.002802
K_283 X_NUC_3.L_CORE X_NUC_87.L_CORE 0.002777
K_284 X_NUC_3.L_CORE X_NUC_88.L_CORE 0.002776
K_285 X_NUC_3.L_CORE X_NUC_89.L_CORE 0.026108
K_286 X_NUC_3.L_CORE X_NUC_90.L_CORE 0.005402
K_287 X_NUC_3.L_CORE X_NUC_91.L_CORE 0.005548
K_288 X_NUC_3.L_CORE X_NUC_92.L_CORE 0.005394
K_289 X_NUC_3.L_CORE X_NUC_93.L_CORE 0.003513
K_290 X_NUC_3.L_CORE X_NUC_94.L_CORE 0.004451
K_291 X_NUC_3.L_CORE X_NUC_95.L_CORE 0.003338
K_292 X_NUC_3.L_CORE X_NUC_96.L_CORE 0.003085
K_293 X_NUC_3.L_CORE X_NUC_97.L_CORE 0.003414
K_294 X_NUC_3.L_CORE X_NUC_98.L_CORE 0.002684
K_295 X_NUC_3.L_CORE X_NUC_99.L_CORE 0.002858
K_296 X_NUC_3.L_CORE X_NUC_100.L_CORE 0.002684
K_297 X_NUC_3.L_CORE X_NUC_101.L_CORE 0.002478
K_298 X_NUC_4.L_CORE X_NUC_5.L_CORE 0.007098
K_299 X_NUC_4.L_CORE X_NUC_6.L_CORE 0.006877
K_300 X_NUC_4.L_CORE X_NUC_7.L_CORE 0.006930
K_301 X_NUC_4.L_CORE X_NUC_8.L_CORE 0.007005
K_302 X_NUC_4.L_CORE X_NUC_9.L_CORE 0.007434
K_303 X_NUC_4.L_CORE X_NUC_10.L_CORE 0.007539
K_304 X_NUC_4.L_CORE X_NUC_11.L_CORE 0.007325
K_305 X_NUC_4.L_CORE X_NUC_12.L_CORE 0.007561
K_306 X_NUC_4.L_CORE X_NUC_13.L_CORE 0.008353
K_307 X_NUC_4.L_CORE X_NUC_14.L_CORE 0.008195
K_308 X_NUC_4.L_CORE X_NUC_15.L_CORE 0.008306
K_309 X_NUC_4.L_CORE X_NUC_16.L_CORE 0.008057
K_310 X_NUC_4.L_CORE X_NUC_17.L_CORE 0.004583
K_311 X_NUC_4.L_CORE X_NUC_18.L_CORE 0.004526
K_312 X_NUC_4.L_CORE X_NUC_19.L_CORE 0.004496
K_313 X_NUC_4.L_CORE X_NUC_20.L_CORE 0.004571
K_314 X_NUC_4.L_CORE X_NUC_21.L_CORE 0.006783
K_315 X_NUC_4.L_CORE X_NUC_22.L_CORE 0.006971
K_316 X_NUC_4.L_CORE X_NUC_23.L_CORE 0.006779
K_317 X_NUC_4.L_CORE X_NUC_24.L_CORE 0.006789
K_318 X_NUC_4.L_CORE X_NUC_25.L_CORE 0.004633
K_319 X_NUC_4.L_CORE X_NUC_26.L_CORE 0.004545
K_320 X_NUC_4.L_CORE X_NUC_27.L_CORE 0.004566
K_321 X_NUC_4.L_CORE X_NUC_28.L_CORE 0.004546
K_322 X_NUC_4.L_CORE X_NUC_29.L_CORE 0.004114
K_323 X_NUC_4.L_CORE X_NUC_30.L_CORE 0.004118
K_324 X_NUC_4.L_CORE X_NUC_31.L_CORE 0.004054
K_325 X_NUC_4.L_CORE X_NUC_32.L_CORE 0.004124
K_326 X_NUC_4.L_CORE X_NUC_33.L_CORE 0.005347
K_327 X_NUC_4.L_CORE X_NUC_34.L_CORE 0.005375
K_328 X_NUC_4.L_CORE X_NUC_35.L_CORE 0.005336
K_329 X_NUC_4.L_CORE X_NUC_36.L_CORE 0.005247
K_330 X_NUC_4.L_CORE X_NUC_37.L_CORE 0.003540
K_331 X_NUC_4.L_CORE X_NUC_38.L_CORE 0.003496
K_332 X_NUC_4.L_CORE X_NUC_39.L_CORE 0.003484
K_333 X_NUC_4.L_CORE X_NUC_40.L_CORE 0.003507
K_334 X_NUC_4.L_CORE X_NUC_41.L_CORE 0.004113
K_335 X_NUC_4.L_CORE X_NUC_42.L_CORE 0.004160
K_336 X_NUC_4.L_CORE X_NUC_43.L_CORE 0.004079
K_337 X_NUC_4.L_CORE X_NUC_44.L_CORE 0.004114
K_338 X_NUC_4.L_CORE X_NUC_45.L_CORE 0.003910
K_339 X_NUC_4.L_CORE X_NUC_46.L_CORE 0.003874
K_340 X_NUC_4.L_CORE X_NUC_47.L_CORE 0.003872
K_341 X_NUC_4.L_CORE X_NUC_48.L_CORE 0.003838
K_342 X_NUC_4.L_CORE X_NUC_49.L_CORE 0.003197
K_343 X_NUC_4.L_CORE X_NUC_50.L_CORE 0.003183
K_344 X_NUC_4.L_CORE X_NUC_51.L_CORE 0.003151
K_345 X_NUC_4.L_CORE X_NUC_52.L_CORE 0.003185
K_346 X_NUC_4.L_CORE X_NUC_53.L_CORE 0.003917
K_347 X_NUC_4.L_CORE X_NUC_54.L_CORE 0.003950
K_348 X_NUC_4.L_CORE X_NUC_55.L_CORE 0.003896
K_349 X_NUC_4.L_CORE X_NUC_56.L_CORE 0.003880
K_350 X_NUC_4.L_CORE X_NUC_57.L_CORE 0.003135
K_351 X_NUC_4.L_CORE X_NUC_58.L_CORE 0.003104
K_352 X_NUC_4.L_CORE X_NUC_59.L_CORE 0.003094
K_353 X_NUC_4.L_CORE X_NUC_60.L_CORE 0.003096
K_354 X_NUC_4.L_CORE X_NUC_61.L_CORE 0.003149
K_355 X_NUC_4.L_CORE X_NUC_62.L_CORE 0.003159
K_356 X_NUC_4.L_CORE X_NUC_63.L_CORE 0.003114
K_357 X_NUC_4.L_CORE X_NUC_64.L_CORE 0.003140
K_358 X_NUC_4.L_CORE X_NUC_65.L_CORE 0.003361
K_359 X_NUC_4.L_CORE X_NUC_66.L_CORE 0.003357
K_360 X_NUC_4.L_CORE X_NUC_67.L_CORE 0.003335
K_361 X_NUC_4.L_CORE X_NUC_68.L_CORE 0.003314
K_362 X_NUC_4.L_CORE X_NUC_69.L_CORE 0.002813
K_363 X_NUC_4.L_CORE X_NUC_70.L_CORE 0.002797
K_364 X_NUC_4.L_CORE X_NUC_71.L_CORE 0.002776
K_365 X_NUC_4.L_CORE X_NUC_72.L_CORE 0.002791
K_366 X_NUC_4.L_CORE X_NUC_73.L_CORE 0.003085
K_367 X_NUC_4.L_CORE X_NUC_74.L_CORE 0.003099
K_368 X_NUC_4.L_CORE X_NUC_75.L_CORE 0.003059
K_369 X_NUC_4.L_CORE X_NUC_76.L_CORE 0.003065
K_370 X_NUC_4.L_CORE X_NUC_77.L_CORE 0.002872
K_371 X_NUC_4.L_CORE X_NUC_78.L_CORE 0.002857
K_372 X_NUC_4.L_CORE X_NUC_79.L_CORE 0.002841
K_373 X_NUC_4.L_CORE X_NUC_80.L_CORE 0.002837
K_374 X_NUC_4.L_CORE X_NUC_81.L_CORE 0.002723
K_375 X_NUC_4.L_CORE X_NUC_82.L_CORE 0.002720
K_376 X_NUC_4.L_CORE X_NUC_83.L_CORE 0.002692
K_377 X_NUC_4.L_CORE X_NUC_84.L_CORE 0.002705
K_378 X_NUC_4.L_CORE X_NUC_85.L_CORE 0.002803
K_379 X_NUC_4.L_CORE X_NUC_86.L_CORE 0.002803
K_380 X_NUC_4.L_CORE X_NUC_87.L_CORE 0.002777
K_381 X_NUC_4.L_CORE X_NUC_88.L_CORE 0.002777
K_382 X_NUC_4.L_CORE X_NUC_89.L_CORE 0.027994
K_383 X_NUC_4.L_CORE X_NUC_90.L_CORE 0.005367
K_384 X_NUC_4.L_CORE X_NUC_91.L_CORE 0.005428
K_385 X_NUC_4.L_CORE X_NUC_92.L_CORE 0.005513
K_386 X_NUC_4.L_CORE X_NUC_93.L_CORE 0.003469
K_387 X_NUC_4.L_CORE X_NUC_94.L_CORE 0.004454
K_388 X_NUC_4.L_CORE X_NUC_95.L_CORE 0.003350
K_389 X_NUC_4.L_CORE X_NUC_96.L_CORE 0.003050
K_390 X_NUC_4.L_CORE X_NUC_97.L_CORE 0.003443
K_391 X_NUC_4.L_CORE X_NUC_98.L_CORE 0.002674
K_392 X_NUC_4.L_CORE X_NUC_99.L_CORE 0.002847
K_393 X_NUC_4.L_CORE X_NUC_100.L_CORE 0.002691
K_394 X_NUC_4.L_CORE X_NUC_101.L_CORE 0.002469
K_395 X_NUC_5.L_CORE X_NUC_6.L_CORE 0.207973
K_396 X_NUC_5.L_CORE X_NUC_7.L_CORE 0.207973
K_397 X_NUC_5.L_CORE X_NUC_8.L_CORE 0.207973
K_398 X_NUC_5.L_CORE X_NUC_9.L_CORE 0.004972
K_399 X_NUC_5.L_CORE X_NUC_10.L_CORE 0.005084
K_400 X_NUC_5.L_CORE X_NUC_11.L_CORE 0.004997
K_401 X_NUC_5.L_CORE X_NUC_12.L_CORE 0.005041
K_402 X_NUC_5.L_CORE X_NUC_13.L_CORE 0.006090
K_403 X_NUC_5.L_CORE X_NUC_14.L_CORE 0.006173
K_404 X_NUC_5.L_CORE X_NUC_15.L_CORE 0.006182
K_405 X_NUC_5.L_CORE X_NUC_16.L_CORE 0.006028
K_406 X_NUC_5.L_CORE X_NUC_17.L_CORE 0.007617
K_407 X_NUC_5.L_CORE X_NUC_18.L_CORE 0.007629
K_408 X_NUC_5.L_CORE X_NUC_19.L_CORE 0.007423
K_409 X_NUC_5.L_CORE X_NUC_20.L_CORE 0.007672
K_410 X_NUC_5.L_CORE X_NUC_21.L_CORE 0.003753
K_411 X_NUC_5.L_CORE X_NUC_22.L_CORE 0.003818
K_412 X_NUC_5.L_CORE X_NUC_23.L_CORE 0.003777
K_413 X_NUC_5.L_CORE X_NUC_24.L_CORE 0.003767
K_414 X_NUC_5.L_CORE X_NUC_25.L_CORE 0.007373
K_415 X_NUC_5.L_CORE X_NUC_26.L_CORE 0.007266
K_416 X_NUC_5.L_CORE X_NUC_27.L_CORE 0.007287
K_417 X_NUC_5.L_CORE X_NUC_28.L_CORE 0.007125
K_418 X_NUC_5.L_CORE X_NUC_29.L_CORE 0.004068
K_419 X_NUC_5.L_CORE X_NUC_30.L_CORE 0.004116
K_420 X_NUC_5.L_CORE X_NUC_31.L_CORE 0.004041
K_421 X_NUC_5.L_CORE X_NUC_32.L_CORE 0.004095
K_422 X_NUC_5.L_CORE X_NUC_33.L_CORE 0.003694
K_423 X_NUC_5.L_CORE X_NUC_34.L_CORE 0.003736
K_424 X_NUC_5.L_CORE X_NUC_35.L_CORE 0.003715
K_425 X_NUC_5.L_CORE X_NUC_36.L_CORE 0.003673
K_426 X_NUC_5.L_CORE X_NUC_37.L_CORE 0.005833
K_427 X_NUC_5.L_CORE X_NUC_38.L_CORE 0.005758
K_428 X_NUC_5.L_CORE X_NUC_39.L_CORE 0.005675
K_429 X_NUC_5.L_CORE X_NUC_40.L_CORE 0.005736
K_430 X_NUC_5.L_CORE X_NUC_41.L_CORE 0.003139
K_431 X_NUC_5.L_CORE X_NUC_42.L_CORE 0.003180
K_432 X_NUC_5.L_CORE X_NUC_43.L_CORE 0.003138
K_433 X_NUC_5.L_CORE X_NUC_44.L_CORE 0.003147
K_434 X_NUC_5.L_CORE X_NUC_45.L_CORE 0.004125
K_435 X_NUC_5.L_CORE X_NUC_46.L_CORE 0.004127
K_436 X_NUC_5.L_CORE X_NUC_47.L_CORE 0.004114
K_437 X_NUC_5.L_CORE X_NUC_48.L_CORE 0.004058
K_438 X_NUC_5.L_CORE X_NUC_49.L_CORE 0.003810
K_439 X_NUC_5.L_CORE X_NUC_50.L_CORE 0.003822
K_440 X_NUC_5.L_CORE X_NUC_51.L_CORE 0.003758
K_441 X_NUC_5.L_CORE X_NUC_52.L_CORE 0.003803
K_442 X_NUC_5.L_CORE X_NUC_53.L_CORE 0.002945
K_443 X_NUC_5.L_CORE X_NUC_54.L_CORE 0.002975
K_444 X_NUC_5.L_CORE X_NUC_55.L_CORE 0.002948
K_445 X_NUC_5.L_CORE X_NUC_56.L_CORE 0.002935
K_446 X_NUC_5.L_CORE X_NUC_57.L_CORE 0.004171
K_447 X_NUC_5.L_CORE X_NUC_58.L_CORE 0.004142
K_448 X_NUC_5.L_CORE X_NUC_59.L_CORE 0.004108
K_449 X_NUC_5.L_CORE X_NUC_60.L_CORE 0.004097
K_450 X_NUC_5.L_CORE X_NUC_61.L_CORE 0.002947
K_451 X_NUC_5.L_CORE X_NUC_62.L_CORE 0.002972
K_452 X_NUC_5.L_CORE X_NUC_63.L_CORE 0.002931
K_453 X_NUC_5.L_CORE X_NUC_64.L_CORE 0.002947
K_454 X_NUC_5.L_CORE X_NUC_65.L_CORE 0.003073
K_455 X_NUC_5.L_CORE X_NUC_66.L_CORE 0.003088
K_456 X_NUC_5.L_CORE X_NUC_67.L_CORE 0.003067
K_457 X_NUC_5.L_CORE X_NUC_68.L_CORE 0.003044
K_458 X_NUC_5.L_CORE X_NUC_69.L_CORE 0.003423
K_459 X_NUC_5.L_CORE X_NUC_70.L_CORE 0.003419
K_460 X_NUC_5.L_CORE X_NUC_71.L_CORE 0.003375
K_461 X_NUC_5.L_CORE X_NUC_72.L_CORE 0.003394
K_462 X_NUC_5.L_CORE X_NUC_73.L_CORE 0.002680
K_463 X_NUC_5.L_CORE X_NUC_74.L_CORE 0.002701
K_464 X_NUC_5.L_CORE X_NUC_75.L_CORE 0.002671
K_465 X_NUC_5.L_CORE X_NUC_76.L_CORE 0.002671
K_466 X_NUC_5.L_CORE X_NUC_77.L_CORE 0.003124
K_467 X_NUC_5.L_CORE X_NUC_78.L_CORE 0.003124
K_468 X_NUC_5.L_CORE X_NUC_79.L_CORE 0.003098
K_469 X_NUC_5.L_CORE X_NUC_80.L_CORE 0.003086
K_470 X_NUC_5.L_CORE X_NUC_81.L_CORE 0.002828
K_471 X_NUC_5.L_CORE X_NUC_82.L_CORE 0.002839
K_472 X_NUC_5.L_CORE X_NUC_83.L_CORE 0.002804
K_473 X_NUC_5.L_CORE X_NUC_84.L_CORE 0.002813
K_474 X_NUC_5.L_CORE X_NUC_85.L_CORE 0.002705
K_475 X_NUC_5.L_CORE X_NUC_86.L_CORE 0.002717
K_476 X_NUC_5.L_CORE X_NUC_87.L_CORE 0.002690
K_477 X_NUC_5.L_CORE X_NUC_88.L_CORE 0.002686
K_478 X_NUC_5.L_CORE X_NUC_89.L_CORE 0.005907
K_479 X_NUC_5.L_CORE X_NUC_90.L_CORE 0.021025
K_480 X_NUC_5.L_CORE X_NUC_91.L_CORE 0.003987
K_481 X_NUC_5.L_CORE X_NUC_92.L_CORE 0.004597
K_482 X_NUC_5.L_CORE X_NUC_93.L_CORE 0.005132
K_483 X_NUC_5.L_CORE X_NUC_94.L_CORE 0.002986
K_484 X_NUC_5.L_CORE X_NUC_95.L_CORE 0.004496
K_485 X_NUC_5.L_CORE X_NUC_96.L_CORE 0.003083
K_486 X_NUC_5.L_CORE X_NUC_97.L_CORE 0.002842
K_487 X_NUC_5.L_CORE X_NUC_98.L_CORE 0.003468
K_488 X_NUC_5.L_CORE X_NUC_99.L_CORE 0.002518
K_489 X_NUC_5.L_CORE X_NUC_100.L_CORE 0.002792
K_490 X_NUC_5.L_CORE X_NUC_101.L_CORE 0.002620
K_491 X_NUC_6.L_CORE X_NUC_7.L_CORE 0.207973
K_492 X_NUC_6.L_CORE X_NUC_8.L_CORE 0.207973
K_493 X_NUC_6.L_CORE X_NUC_9.L_CORE 0.004864
K_494 X_NUC_6.L_CORE X_NUC_10.L_CORE 0.004972
K_495 X_NUC_6.L_CORE X_NUC_11.L_CORE 0.004889
K_496 X_NUC_6.L_CORE X_NUC_12.L_CORE 0.004930
K_497 X_NUC_6.L_CORE X_NUC_13.L_CORE 0.006006
K_498 X_NUC_6.L_CORE X_NUC_14.L_CORE 0.006090
K_499 X_NUC_6.L_CORE X_NUC_15.L_CORE 0.006096
K_500 X_NUC_6.L_CORE X_NUC_16.L_CORE 0.005948
K_501 X_NUC_6.L_CORE X_NUC_17.L_CORE 0.007596
K_502 X_NUC_6.L_CORE X_NUC_18.L_CORE 0.007617
K_503 X_NUC_6.L_CORE X_NUC_19.L_CORE 0.007408
K_504 X_NUC_6.L_CORE X_NUC_20.L_CORE 0.007655
K_505 X_NUC_6.L_CORE X_NUC_21.L_CORE 0.003689
K_506 X_NUC_6.L_CORE X_NUC_22.L_CORE 0.003753
K_507 X_NUC_6.L_CORE X_NUC_23.L_CORE 0.003713
K_508 X_NUC_6.L_CORE X_NUC_24.L_CORE 0.003703
K_509 X_NUC_6.L_CORE X_NUC_25.L_CORE 0.007474
K_510 X_NUC_6.L_CORE X_NUC_26.L_CORE 0.007373
K_511 X_NUC_6.L_CORE X_NUC_27.L_CORE 0.007390
K_512 X_NUC_6.L_CORE X_NUC_28.L_CORE 0.007221
K_513 X_NUC_6.L_CORE X_NUC_29.L_CORE 0.004020
K_514 X_NUC_6.L_CORE X_NUC_30.L_CORE 0.004068
K_515 X_NUC_6.L_CORE X_NUC_31.L_CORE 0.003995
K_516 X_NUC_6.L_CORE X_NUC_32.L_CORE 0.004047
K_517 X_NUC_6.L_CORE X_NUC_33.L_CORE 0.003652
K_518 X_NUC_6.L_CORE X_NUC_34.L_CORE 0.003694
K_519 X_NUC_6.L_CORE X_NUC_35.L_CORE 0.003673
K_520 X_NUC_6.L_CORE X_NUC_36.L_CORE 0.003633
K_521 X_NUC_6.L_CORE X_NUC_37.L_CORE 0.005906
K_522 X_NUC_6.L_CORE X_NUC_38.L_CORE 0.005833
K_523 X_NUC_6.L_CORE X_NUC_39.L_CORE 0.005745
K_524 X_NUC_6.L_CORE X_NUC_40.L_CORE 0.005807
K_525 X_NUC_6.L_CORE X_NUC_41.L_CORE 0.003099
K_526 X_NUC_6.L_CORE X_NUC_42.L_CORE 0.003139
K_527 X_NUC_6.L_CORE X_NUC_43.L_CORE 0.003099
K_528 X_NUC_6.L_CORE X_NUC_44.L_CORE 0.003107
K_529 X_NUC_6.L_CORE X_NUC_45.L_CORE 0.004122
K_530 X_NUC_6.L_CORE X_NUC_46.L_CORE 0.004125
K_531 X_NUC_6.L_CORE X_NUC_47.L_CORE 0.004111
K_532 X_NUC_6.L_CORE X_NUC_48.L_CORE 0.004055
K_533 X_NUC_6.L_CORE X_NUC_49.L_CORE 0.003797
K_534 X_NUC_6.L_CORE X_NUC_50.L_CORE 0.003810
K_535 X_NUC_6.L_CORE X_NUC_51.L_CORE 0.003746
K_536 X_NUC_6.L_CORE X_NUC_52.L_CORE 0.003791
K_537 X_NUC_6.L_CORE X_NUC_53.L_CORE 0.002914
K_538 X_NUC_6.L_CORE X_NUC_54.L_CORE 0.002945
K_539 X_NUC_6.L_CORE X_NUC_55.L_CORE 0.002918
K_540 X_NUC_6.L_CORE X_NUC_56.L_CORE 0.002905
K_541 X_NUC_6.L_CORE X_NUC_57.L_CORE 0.004198
K_542 X_NUC_6.L_CORE X_NUC_58.L_CORE 0.004171
K_543 X_NUC_6.L_CORE X_NUC_59.L_CORE 0.004135
K_544 X_NUC_6.L_CORE X_NUC_60.L_CORE 0.004124
K_545 X_NUC_6.L_CORE X_NUC_61.L_CORE 0.002923
K_546 X_NUC_6.L_CORE X_NUC_62.L_CORE 0.002947
K_547 X_NUC_6.L_CORE X_NUC_63.L_CORE 0.002907
K_548 X_NUC_6.L_CORE X_NUC_64.L_CORE 0.002922
K_549 X_NUC_6.L_CORE X_NUC_65.L_CORE 0.003058
K_550 X_NUC_6.L_CORE X_NUC_66.L_CORE 0.003073
K_551 X_NUC_6.L_CORE X_NUC_67.L_CORE 0.003052
K_552 X_NUC_6.L_CORE X_NUC_68.L_CORE 0.003029
K_553 X_NUC_6.L_CORE X_NUC_69.L_CORE 0.003426
K_554 X_NUC_6.L_CORE X_NUC_70.L_CORE 0.003423
K_555 X_NUC_6.L_CORE X_NUC_71.L_CORE 0.003378
K_556 X_NUC_6.L_CORE X_NUC_72.L_CORE 0.003397
K_557 X_NUC_6.L_CORE X_NUC_73.L_CORE 0.002658
K_558 X_NUC_6.L_CORE X_NUC_74.L_CORE 0.002680
K_559 X_NUC_6.L_CORE X_NUC_75.L_CORE 0.002650
K_560 X_NUC_6.L_CORE X_NUC_76.L_CORE 0.002650
K_561 X_NUC_6.L_CORE X_NUC_77.L_CORE 0.003122
K_562 X_NUC_6.L_CORE X_NUC_78.L_CORE 0.003124
K_563 X_NUC_6.L_CORE X_NUC_79.L_CORE 0.003097
K_564 X_NUC_6.L_CORE X_NUC_80.L_CORE 0.003085
K_565 X_NUC_6.L_CORE X_NUC_81.L_CORE 0.002816
K_566 X_NUC_6.L_CORE X_NUC_82.L_CORE 0.002828
K_567 X_NUC_6.L_CORE X_NUC_83.L_CORE 0.002793
K_568 X_NUC_6.L_CORE X_NUC_84.L_CORE 0.002802
K_569 X_NUC_6.L_CORE X_NUC_85.L_CORE 0.002693
K_570 X_NUC_6.L_CORE X_NUC_86.L_CORE 0.002705
K_571 X_NUC_6.L_CORE X_NUC_87.L_CORE 0.002678
K_572 X_NUC_6.L_CORE X_NUC_88.L_CORE 0.002674
K_573 X_NUC_6.L_CORE X_NUC_89.L_CORE 0.005759
K_574 X_NUC_6.L_CORE X_NUC_90.L_CORE 0.023377
K_575 X_NUC_6.L_CORE X_NUC_91.L_CORE 0.003919
K_576 X_NUC_6.L_CORE X_NUC_92.L_CORE 0.004565
K_577 X_NUC_6.L_CORE X_NUC_93.L_CORE 0.005148
K_578 X_NUC_6.L_CORE X_NUC_94.L_CORE 0.002947