* Applied Vacuum Engineering (AVE) - SPICE Netlist
* Element: Selenium-79 (Z=34, A=79)
* Auto-generated topological mutual impedance array
* Nodes: 79



* -----------------------------------------------------------------
* NUCLEON (Baseline 6^3_2 Topological Defect)
* -----------------------------------------------------------------
.SUBCKT NUCLEON IN OUT
L_CORE IN OUT 1uH
C_CORE IN OUT 1pF
.ENDS NUCLEON



* -----------------------------------------------------------------
* MACROSCOPIC TOPOLOGY (Nucleon Array)
* -----------------------------------------------------------------
V_STIM NODE_1 0 AC 1 PULSE(0 100k 10n 1n 1n 50n 100n)

X_NUC_1 NODE_1 0 NUCLEON
X_NUC_2 NODE_2 0 NUCLEON
X_NUC_3 NODE_3 0 NUCLEON
X_NUC_4 NODE_4 0 NUCLEON
X_NUC_5 NODE_5 0 NUCLEON
X_NUC_6 NODE_6 0 NUCLEON
X_NUC_7 NODE_7 0 NUCLEON
X_NUC_8 NODE_8 0 NUCLEON
X_NUC_9 NODE_9 0 NUCLEON
X_NUC_10 NODE_10 0 NUCLEON
X_NUC_11 NODE_11 0 NUCLEON
X_NUC_12 NODE_12 0 NUCLEON
X_NUC_13 NODE_13 0 NUCLEON
X_NUC_14 NODE_14 0 NUCLEON
X_NUC_15 NODE_15 0 NUCLEON
X_NUC_16 NODE_16 0 NUCLEON
X_NUC_17 NODE_17 0 NUCLEON
X_NUC_18 NODE_18 0 NUCLEON
X_NUC_19 NODE_19 0 NUCLEON
X_NUC_20 NODE_20 0 NUCLEON
X_NUC_21 NODE_21 0 NUCLEON
X_NUC_22 NODE_22 0 NUCLEON
X_NUC_23 NODE_23 0 NUCLEON
X_NUC_24 NODE_24 0 NUCLEON
X_NUC_25 NODE_25 0 NUCLEON
X_NUC_26 NODE_26 0 NUCLEON
X_NUC_27 NODE_27 0 NUCLEON
X_NUC_28 NODE_28 0 NUCLEON
X_NUC_29 NODE_29 0 NUCLEON
X_NUC_30 NODE_30 0 NUCLEON
X_NUC_31 NODE_31 0 NUCLEON
X_NUC_32 NODE_32 0 NUCLEON
X_NUC_33 NODE_33 0 NUCLEON
X_NUC_34 NODE_34 0 NUCLEON
X_NUC_35 NODE_35 0 NUCLEON
X_NUC_36 NODE_36 0 NUCLEON
X_NUC_37 NODE_37 0 NUCLEON
X_NUC_38 NODE_38 0 NUCLEON
X_NUC_39 NODE_39 0 NUCLEON
X_NUC_40 NODE_40 0 NUCLEON
X_NUC_41 NODE_41 0 NUCLEON
X_NUC_42 NODE_42 0 NUCLEON
X_NUC_43 NODE_43 0 NUCLEON
X_NUC_44 NODE_44 0 NUCLEON
X_NUC_45 NODE_45 0 NUCLEON
X_NUC_46 NODE_46 0 NUCLEON
X_NUC_47 NODE_47 0 NUCLEON
X_NUC_48 NODE_48 0 NUCLEON
X_NUC_49 NODE_49 0 NUCLEON
X_NUC_50 NODE_50 0 NUCLEON
X_NUC_51 NODE_51 0 NUCLEON
X_NUC_52 NODE_52 0 NUCLEON
X_NUC_53 NODE_53 0 NUCLEON
X_NUC_54 NODE_54 0 NUCLEON
X_NUC_55 NODE_55 0 NUCLEON
X_NUC_56 NODE_56 0 NUCLEON
X_NUC_57 NODE_57 0 NUCLEON
X_NUC_58 NODE_58 0 NUCLEON
X_NUC_59 NODE_59 0 NUCLEON
X_NUC_60 NODE_60 0 NUCLEON
X_NUC_61 NODE_61 0 NUCLEON
X_NUC_62 NODE_62 0 NUCLEON
X_NUC_63 NODE_63 0 NUCLEON
X_NUC_64 NODE_64 0 NUCLEON
X_NUC_65 NODE_65 0 NUCLEON
X_NUC_66 NODE_66 0 NUCLEON
X_NUC_67 NODE_67 0 NUCLEON
X_NUC_68 NODE_68 0 NUCLEON
X_NUC_69 NODE_69 0 NUCLEON
X_NUC_70 NODE_70 0 NUCLEON
X_NUC_71 NODE_71 0 NUCLEON
X_NUC_72 NODE_72 0 NUCLEON
X_NUC_73 NODE_73 0 NUCLEON
X_NUC_74 NODE_74 0 NUCLEON
X_NUC_75 NODE_75 0 NUCLEON
X_NUC_76 NODE_76 0 NUCLEON
X_NUC_77 NODE_77 0 NUCLEON
X_NUC_78 NODE_78 0 NUCLEON
X_NUC_79 NODE_79 0 NUCLEON


* -----------------------------------------------------------------
* SPATIAL MUTUAL INDUCTANCE (K-FACTORS)
* -----------------------------------------------------------------
K_1 X_NUC_1.L_CORE X_NUC_2.L_CORE 0.207973
K_2 X_NUC_1.L_CORE X_NUC_3.L_CORE 0.207973
K_3 X_NUC_1.L_CORE X_NUC_4.L_CORE 0.207973
K_4 X_NUC_1.L_CORE X_NUC_5.L_CORE 0.007632
K_5 X_NUC_1.L_CORE X_NUC_6.L_CORE 0.007377
K_6 X_NUC_1.L_CORE X_NUC_7.L_CORE 0.007433
K_7 X_NUC_1.L_CORE X_NUC_8.L_CORE 0.007514
K_8 X_NUC_1.L_CORE X_NUC_9.L_CORE 0.008234
K_9 X_NUC_1.L_CORE X_NUC_10.L_CORE 0.008355
K_10 X_NUC_1.L_CORE X_NUC_11.L_CORE 0.008083
K_11 X_NUC_1.L_CORE X_NUC_12.L_CORE 0.008367
K_12 X_NUC_1.L_CORE X_NUC_13.L_CORE 0.008728
K_13 X_NUC_1.L_CORE X_NUC_14.L_CORE 0.008556
K_14 X_NUC_1.L_CORE X_NUC_15.L_CORE 0.008652
K_15 X_NUC_1.L_CORE X_NUC_16.L_CORE 0.008396
K_16 X_NUC_1.L_CORE X_NUC_17.L_CORE 0.005008
K_17 X_NUC_1.L_CORE X_NUC_18.L_CORE 0.004939
K_18 X_NUC_1.L_CORE X_NUC_19.L_CORE 0.004900
K_19 X_NUC_1.L_CORE X_NUC_20.L_CORE 0.004986
K_20 X_NUC_1.L_CORE X_NUC_21.L_CORE 0.007294
K_21 X_NUC_1.L_CORE X_NUC_22.L_CORE 0.007490
K_22 X_NUC_1.L_CORE X_NUC_23.L_CORE 0.007262
K_23 X_NUC_1.L_CORE X_NUC_24.L_CORE 0.007272
K_24 X_NUC_1.L_CORE X_NUC_25.L_CORE 0.004970
K_25 X_NUC_1.L_CORE X_NUC_26.L_CORE 0.004874
K_26 X_NUC_1.L_CORE X_NUC_27.L_CORE 0.004888
K_27 X_NUC_1.L_CORE X_NUC_28.L_CORE 0.004867
K_28 X_NUC_1.L_CORE X_NUC_29.L_CORE 0.004521
K_29 X_NUC_1.L_CORE X_NUC_30.L_CORE 0.004524
K_30 X_NUC_1.L_CORE X_NUC_31.L_CORE 0.004444
K_31 X_NUC_1.L_CORE X_NUC_32.L_CORE 0.004523
K_32 X_NUC_1.L_CORE X_NUC_33.L_CORE 0.005591
K_33 X_NUC_1.L_CORE X_NUC_34.L_CORE 0.005612
K_34 X_NUC_1.L_CORE X_NUC_35.L_CORE 0.005558
K_35 X_NUC_1.L_CORE X_NUC_36.L_CORE 0.005476
K_36 X_NUC_1.L_CORE X_NUC_37.L_CORE 0.003875
K_37 X_NUC_1.L_CORE X_NUC_38.L_CORE 0.003826
K_38 X_NUC_1.L_CORE X_NUC_39.L_CORE 0.003806
K_39 X_NUC_1.L_CORE X_NUC_40.L_CORE 0.003832
K_40 X_NUC_1.L_CORE X_NUC_41.L_CORE 0.004440
K_41 X_NUC_1.L_CORE X_NUC_42.L_CORE 0.004483
K_42 X_NUC_1.L_CORE X_NUC_43.L_CORE 0.004390
K_43 X_NUC_1.L_CORE X_NUC_44.L_CORE 0.004426
K_44 X_NUC_1.L_CORE X_NUC_45.L_CORE 0.004152
K_45 X_NUC_1.L_CORE X_NUC_46.L_CORE 0.004116
K_46 X_NUC_1.L_CORE X_NUC_47.L_CORE 0.004102
K_47 X_NUC_1.L_CORE X_NUC_48.L_CORE 0.004072
K_48 X_NUC_1.L_CORE X_NUC_49.L_CORE 0.003542
K_49 X_NUC_1.L_CORE X_NUC_50.L_CORE 0.003526
K_50 X_NUC_1.L_CORE X_NUC_51.L_CORE 0.003485
K_51 X_NUC_1.L_CORE X_NUC_52.L_CORE 0.003519
K_52 X_NUC_1.L_CORE X_NUC_53.L_CORE 0.004072
K_53 X_NUC_1.L_CORE X_NUC_54.L_CORE 0.004093
K_54 X_NUC_1.L_CORE X_NUC_55.L_CORE 0.004034
K_55 X_NUC_1.L_CORE X_NUC_56.L_CORE 0.004024
K_56 X_NUC_1.L_CORE X_NUC_57.L_CORE 0.003441
K_57 X_NUC_1.L_CORE X_NUC_58.L_CORE 0.003413
K_58 X_NUC_1.L_CORE X_NUC_59.L_CORE 0.003391
K_59 X_NUC_1.L_CORE X_NUC_60.L_CORE 0.003394
K_60 X_NUC_1.L_CORE X_NUC_61.L_CORE 0.003443
K_61 X_NUC_1.L_CORE X_NUC_62.L_CORE 0.003446
K_62 X_NUC_1.L_CORE X_NUC_63.L_CORE 0.003397
K_63 X_NUC_1.L_CORE X_NUC_64.L_CORE 0.003417
K_64 X_NUC_1.L_CORE X_NUC_65.L_CORE 0.003444
K_65 X_NUC_1.L_CORE X_NUC_66.L_CORE 0.003437
K_66 X_NUC_1.L_CORE X_NUC_67.L_CORE 0.003403
K_67 X_NUC_1.L_CORE X_NUC_68.L_CORE 0.003400
K_68 X_NUC_1.L_CORE X_NUC_69.L_CORE 0.031848
K_69 X_NUC_1.L_CORE X_NUC_70.L_CORE 0.005860
K_70 X_NUC_1.L_CORE X_NUC_71.L_CORE 0.006122
K_71 X_NUC_1.L_CORE X_NUC_72.L_CORE 0.006007
K_72 X_NUC_1.L_CORE X_NUC_73.L_CORE 0.003863
K_73 X_NUC_1.L_CORE X_NUC_74.L_CORE 0.004941
K_74 X_NUC_1.L_CORE X_NUC_75.L_CORE 0.003696
K_75 X_NUC_1.L_CORE X_NUC_76.L_CORE 0.003425
K_76 X_NUC_1.L_CORE X_NUC_77.L_CORE 0.003732
K_77 X_NUC_1.L_CORE X_NUC_78.L_CORE 0.003023
K_78 X_NUC_1.L_CORE X_NUC_79.L_CORE 0.003118
K_79 X_NUC_2.L_CORE X_NUC_3.L_CORE 0.207973
K_80 X_NUC_2.L_CORE X_NUC_4.L_CORE 0.207973
K_81 X_NUC_2.L_CORE X_NUC_5.L_CORE 0.007905
K_82 X_NUC_2.L_CORE X_NUC_6.L_CORE 0.007632
K_83 X_NUC_2.L_CORE X_NUC_7.L_CORE 0.007689
K_84 X_NUC_2.L_CORE X_NUC_8.L_CORE 0.007779
K_85 X_NUC_2.L_CORE X_NUC_9.L_CORE 0.008105
K_86 X_NUC_2.L_CORE X_NUC_10.L_CORE 0.008234
K_87 X_NUC_2.L_CORE X_NUC_11.L_CORE 0.007967
K_88 X_NUC_2.L_CORE X_NUC_12.L_CORE 0.008239
K_89 X_NUC_2.L_CORE X_NUC_13.L_CORE 0.008893
K_90 X_NUC_2.L_CORE X_NUC_14.L_CORE 0.008728
K_91 X_NUC_2.L_CORE X_NUC_15.L_CORE 0.008821
K_92 X_NUC_2.L_CORE X_NUC_16.L_CORE 0.008550
K_93 X_NUC_2.L_CORE X_NUC_17.L_CORE 0.005077
K_94 X_NUC_2.L_CORE X_NUC_18.L_CORE 0.005008
K_95 X_NUC_2.L_CORE X_NUC_19.L_CORE 0.004966
K_96 X_NUC_2.L_CORE X_NUC_20.L_CORE 0.005055
K_97 X_NUC_2.L_CORE X_NUC_21.L_CORE 0.007104
K_98 X_NUC_2.L_CORE X_NUC_22.L_CORE 0.007294
K_99 X_NUC_2.L_CORE X_NUC_23.L_CORE 0.007079
K_100 X_NUC_2.L_CORE X_NUC_24.L_CORE 0.007088
K_101 X_NUC_2.L_CORE X_NUC_25.L_CORE 0.005069
K_102 X_NUC_2.L_CORE X_NUC_26.L_CORE 0.004970
K_103 X_NUC_2.L_CORE X_NUC_27.L_CORE 0.004983
K_104 X_NUC_2.L_CORE X_NUC_28.L_CORE 0.004961
K_105 X_NUC_2.L_CORE X_NUC_29.L_CORE 0.004516
K_106 X_NUC_2.L_CORE X_NUC_30.L_CORE 0.004521
K_107 X_NUC_2.L_CORE X_NUC_31.L_CORE 0.004440
K_108 X_NUC_2.L_CORE X_NUC_32.L_CORE 0.004518
K_109 X_NUC_2.L_CORE X_NUC_33.L_CORE 0.005565
K_110 X_NUC_2.L_CORE X_NUC_34.L_CORE 0.005591
K_111 X_NUC_2.L_CORE X_NUC_35.L_CORE 0.005535
K_112 X_NUC_2.L_CORE X_NUC_36.L_CORE 0.005454
K_113 X_NUC_2.L_CORE X_NUC_37.L_CORE 0.003925
K_114 X_NUC_2.L_CORE X_NUC_38.L_CORE 0.003875
K_115 X_NUC_2.L_CORE X_NUC_39.L_CORE 0.003854
K_116 X_NUC_2.L_CORE X_NUC_40.L_CORE 0.003880
K_117 X_NUC_2.L_CORE X_NUC_41.L_CORE 0.004396
K_118 X_NUC_2.L_CORE X_NUC_42.L_CORE 0.004440
K_119 X_NUC_2.L_CORE X_NUC_43.L_CORE 0.004348
K_120 X_NUC_2.L_CORE X_NUC_44.L_CORE 0.004383
K_121 X_NUC_2.L_CORE X_NUC_45.L_CORE 0.004187
K_122 X_NUC_2.L_CORE X_NUC_46.L_CORE 0.004152
K_123 X_NUC_2.L_CORE X_NUC_47.L_CORE 0.004136
K_124 X_NUC_2.L_CORE X_NUC_48.L_CORE 0.004106
K_125 X_NUC_2.L_CORE X_NUC_49.L_CORE 0.003557
K_126 X_NUC_2.L_CORE X_NUC_50.L_CORE 0.003542
K_127 X_NUC_2.L_CORE X_NUC_51.L_CORE 0.003499
K_128 X_NUC_2.L_CORE X_NUC_52.L_CORE 0.003534
K_129 X_NUC_2.L_CORE X_NUC_53.L_CORE 0.004049
K_130 X_NUC_2.L_CORE X_NUC_54.L_CORE 0.004072
K_131 X_NUC_2.L_CORE X_NUC_55.L_CORE 0.004013
K_132 X_NUC_2.L_CORE X_NUC_56.L_CORE 0.004003
K_133 X_NUC_2.L_CORE X_NUC_57.L_CORE 0.003469
K_134 X_NUC_2.L_CORE X_NUC_58.L_CORE 0.003441
K_135 X_NUC_2.L_CORE X_NUC_59.L_CORE 0.003418
K_136 X_NUC_2.L_CORE X_NUC_60.L_CORE 0.003421
K_137 X_NUC_2.L_CORE X_NUC_61.L_CORE 0.003439
K_138 X_NUC_2.L_CORE X_NUC_62.L_CORE 0.003443
K_139 X_NUC_2.L_CORE X_NUC_63.L_CORE 0.003394
K_140 X_NUC_2.L_CORE X_NUC_64.L_CORE 0.003414
K_141 X_NUC_2.L_CORE X_NUC_65.L_CORE 0.003450
K_142 X_NUC_2.L_CORE X_NUC_66.L_CORE 0.003444
K_143 X_NUC_2.L_CORE X_NUC_67.L_CORE 0.003409
K_144 X_NUC_2.L_CORE X_NUC_68.L_CORE 0.003406
K_145 X_NUC_2.L_CORE X_NUC_69.L_CORE 0.029431
K_146 X_NUC_2.L_CORE X_NUC_70.L_CORE 0.006024
K_147 X_NUC_2.L_CORE X_NUC_71.L_CORE 0.006035
K_148 X_NUC_2.L_CORE X_NUC_72.L_CORE 0.006070
K_149 X_NUC_2.L_CORE X_NUC_73.L_CORE 0.003902
K_150 X_NUC_2.L_CORE X_NUC_74.L_CORE 0.004861
K_151 X_NUC_2.L_CORE X_NUC_75.L_CORE 0.003744
K_152 X_NUC_2.L_CORE X_NUC_76.L_CORE 0.003422
K_153 X_NUC_2.L_CORE X_NUC_77.L_CORE 0.003725
K_154 X_NUC_2.L_CORE X_NUC_78.L_CORE 0.003044
K_155 X_NUC_2.L_CORE X_NUC_79.L_CORE 0.003113
K_156 X_NUC_3.L_CORE X_NUC_4.L_CORE 0.207973
K_157 X_NUC_3.L_CORE X_NUC_5.L_CORE 0.007837
K_158 X_NUC_3.L_CORE X_NUC_6.L_CORE 0.007567
K_159 X_NUC_3.L_CORE X_NUC_7.L_CORE 0.007632
K_160 X_NUC_3.L_CORE X_NUC_8.L_CORE 0.007715
K_161 X_NUC_3.L_CORE X_NUC_9.L_CORE 0.008380
K_162 X_NUC_3.L_CORE X_NUC_10.L_CORE 0.008514
K_163 X_NUC_3.L_CORE X_NUC_11.L_CORE 0.008234
K_164 X_NUC_3.L_CORE X_NUC_12.L_CORE 0.008527
K_165 X_NUC_3.L_CORE X_NUC_13.L_CORE 0.008789
K_166 X_NUC_3.L_CORE X_NUC_14.L_CORE 0.008622
K_167 X_NUC_3.L_CORE X_NUC_15.L_CORE 0.008728
K_168 X_NUC_3.L_CORE X_NUC_16.L_CORE 0.008458
K_169 X_NUC_3.L_CORE X_NUC_17.L_CORE 0.005120
K_170 X_NUC_3.L_CORE X_NUC_18.L_CORE 0.005048
K_171 X_NUC_3.L_CORE X_NUC_19.L_CORE 0.005008
K_172 X_NUC_3.L_CORE X_NUC_20.L_CORE 0.005098
K_173 X_NUC_3.L_CORE X_NUC_21.L_CORE 0.007317
K_174 X_NUC_3.L_CORE X_NUC_22.L_CORE 0.007520
K_175 X_NUC_3.L_CORE X_NUC_23.L_CORE 0.007294
K_176 X_NUC_3.L_CORE X_NUC_24.L_CORE 0.007300
K_177 X_NUC_3.L_CORE X_NUC_25.L_CORE 0.005053
K_178 X_NUC_3.L_CORE X_NUC_26.L_CORE 0.004954
K_179 X_NUC_3.L_CORE X_NUC_27.L_CORE 0.004970
K_180 X_NUC_3.L_CORE X_NUC_28.L_CORE 0.004946
K_181 X_NUC_3.L_CORE X_NUC_29.L_CORE 0.004600
K_182 X_NUC_3.L_CORE X_NUC_30.L_CORE 0.004604
K_183 X_NUC_3.L_CORE X_NUC_31.L_CORE 0.004521
K_184 X_NUC_3.L_CORE X_NUC_32.L_CORE 0.004603
K_185 X_NUC_3.L_CORE X_NUC_33.L_CORE 0.005620
K_186 X_NUC_3.L_CORE X_NUC_34.L_CORE 0.005644
K_187 X_NUC_3.L_CORE X_NUC_35.L_CORE 0.005591
K_188 X_NUC_3.L_CORE X_NUC_36.L_CORE 0.005505
K_189 X_NUC_3.L_CORE X_NUC_37.L_CORE 0.003946
K_190 X_NUC_3.L_CORE X_NUC_38.L_CORE 0.003895
K_191 X_NUC_3.L_CORE X_NUC_39.L_CORE 0.003875
K_192 X_NUC_3.L_CORE X_NUC_40.L_CORE 0.003901
K_193 X_NUC_3.L_CORE X_NUC_41.L_CORE 0.004490
K_194 X_NUC_3.L_CORE X_NUC_42.L_CORE 0.004536
K_195 X_NUC_3.L_CORE X_NUC_43.L_CORE 0.004440
K_196 X_NUC_3.L_CORE X_NUC_44.L_CORE 0.004476
K_197 X_NUC_3.L_CORE X_NUC_45.L_CORE 0.004203
K_198 X_NUC_3.L_CORE X_NUC_46.L_CORE 0.004166
K_199 X_NUC_3.L_CORE X_NUC_47.L_CORE 0.004152
K_200 X_NUC_3.L_CORE X_NUC_48.L_CORE 0.004121
K_201 X_NUC_3.L_CORE X_NUC_49.L_CORE 0.003601
K_202 X_NUC_3.L_CORE X_NUC_50.L_CORE 0.003585
K_203 X_NUC_3.L_CORE X_NUC_51.L_CORE 0.003542
K_204 X_NUC_3.L_CORE X_NUC_52.L_CORE 0.003577
K_205 X_NUC_3.L_CORE X_NUC_53.L_CORE 0.004110
K_206 X_NUC_3.L_CORE X_NUC_54.L_CORE 0.004132
K_207 X_NUC_3.L_CORE X_NUC_55.L_CORE 0.004072
K_208 X_NUC_3.L_CORE X_NUC_56.L_CORE 0.004061
K_209 X_NUC_3.L_CORE X_NUC_57.L_CORE 0.003492
K_210 X_NUC_3.L_CORE X_NUC_58.L_CORE 0.003463
K_211 X_NUC_3.L_CORE X_NUC_59.L_CORE 0.003441
K_212 X_NUC_3.L_CORE X_NUC_60.L_CORE 0.003444
K_213 X_NUC_3.L_CORE X_NUC_61.L_CORE 0.003490
K_214 X_NUC_3.L_CORE X_NUC_62.L_CORE 0.003493
K_215 X_NUC_3.L_CORE X_NUC_63.L_CORE 0.003443
K_216 X_NUC_3.L_CORE X_NUC_64.L_CORE 0.003463
K_217 X_NUC_3.L_CORE X_NUC_65.L_CORE 0.003486
K_218 X_NUC_3.L_CORE X_NUC_66.L_CORE 0.003480
K_219 X_NUC_3.L_CORE X_NUC_67.L_CORE 0.003444
K_220 X_NUC_3.L_CORE X_NUC_68.L_CORE 0.003441
K_221 X_NUC_3.L_CORE X_NUC_69.L_CORE 0.027626
K_222 X_NUC_3.L_CORE X_NUC_70.L_CORE 0.005969
K_223 X_NUC_3.L_CORE X_NUC_71.L_CORE 0.006188
K_224 X_NUC_3.L_CORE X_NUC_72.L_CORE 0.006026
K_225 X_NUC_3.L_CORE X_NUC_73.L_CORE 0.003931
K_226 X_NUC_3.L_CORE X_NUC_74.L_CORE 0.004958
K_227 X_NUC_3.L_CORE X_NUC_75.L_CORE 0.003745
K_228 X_NUC_3.L_CORE X_NUC_76.L_CORE 0.003473
K_229 X_NUC_3.L_CORE X_NUC_77.L_CORE 0.003759
K_230 X_NUC_3.L_CORE X_NUC_78.L_CORE 0.003066
K_231 X_NUC_3.L_CORE X_NUC_79.L_CORE 0.003153
K_232 X_NUC_4.L_CORE X_NUC_5.L_CORE 0.007746
K_233 X_NUC_4.L_CORE X_NUC_6.L_CORE 0.007484
K_234 X_NUC_4.L_CORE X_NUC_7.L_CORE 0.007542
K_235 X_NUC_4.L_CORE X_NUC_8.L_CORE 0.007632
K_236 X_NUC_4.L_CORE X_NUC_9.L_CORE 0.008094
K_237 X_NUC_4.L_CORE X_NUC_10.L_CORE 0.008215
K_238 X_NUC_4.L_CORE X_NUC_11.L_CORE 0.007957
K_239 X_NUC_4.L_CORE X_NUC_12.L_CORE 0.008234
K_240 X_NUC_4.L_CORE X_NUC_13.L_CORE 0.009085
K_241 X_NUC_4.L_CORE X_NUC_14.L_CORE 0.008900
K_242 X_NUC_4.L_CORE X_NUC_15.L_CORE 0.009008
K_243 X_NUC_4.L_CORE X_NUC_16.L_CORE 0.008728
K_244 X_NUC_4.L_CORE X_NUC_17.L_CORE 0.005027
K_245 X_NUC_4.L_CORE X_NUC_18.L_CORE 0.004959
K_246 X_NUC_4.L_CORE X_NUC_19.L_CORE 0.004920
K_247 X_NUC_4.L_CORE X_NUC_20.L_CORE 0.005008
K_248 X_NUC_4.L_CORE X_NUC_21.L_CORE 0.007307
K_249 X_NUC_4.L_CORE X_NUC_22.L_CORE 0.007508
K_250 X_NUC_4.L_CORE X_NUC_23.L_CORE 0.007279
K_251 X_NUC_4.L_CORE X_NUC_24.L_CORE 0.007294
K_252 X_NUC_4.L_CORE X_NUC_25.L_CORE 0.005077
K_253 X_NUC_4.L_CORE X_NUC_26.L_CORE 0.004976
K_254 X_NUC_4.L_CORE X_NUC_27.L_CORE 0.004991
K_255 X_NUC_4.L_CORE X_NUC_28.L_CORE 0.004970
K_256 X_NUC_4.L_CORE X_NUC_29.L_CORE 0.004517
K_257 X_NUC_4.L_CORE X_NUC_30.L_CORE 0.004521
K_258 X_NUC_4.L_CORE X_NUC_31.L_CORE 0.004441
K_259 X_NUC_4.L_CORE X_NUC_32.L_CORE 0.004521
K_260 X_NUC_4.L_CORE X_NUC_33.L_CORE 0.005709
K_261 X_NUC_4.L_CORE X_NUC_34.L_CORE 0.005734
K_262 X_NUC_4.L_CORE X_NUC_35.L_CORE 0.005677
K_263 X_NUC_4.L_CORE X_NUC_36.L_CORE 0.005591
K_264 X_NUC_4.L_CORE X_NUC_37.L_CORE 0.003919
K_265 X_NUC_4.L_CORE X_NUC_38.L_CORE 0.003868
K_266 X_NUC_4.L_CORE X_NUC_39.L_CORE 0.003848
K_267 X_NUC_4.L_CORE X_NUC_40.L_CORE 0.003875
K_268 X_NUC_4.L_CORE X_NUC_41.L_CORE 0.004453
K_269 X_NUC_4.L_CORE X_NUC_42.L_CORE 0.004497
K_270 X_NUC_4.L_CORE X_NUC_43.L_CORE 0.004403
K_271 X_NUC_4.L_CORE X_NUC_44.L_CORE 0.004440
K_272 X_NUC_4.L_CORE X_NUC_45.L_CORE 0.004235
K_273 X_NUC_4.L_CORE X_NUC_46.L_CORE 0.004198
K_274 X_NUC_4.L_CORE X_NUC_47.L_CORE 0.004183
K_275 X_NUC_4.L_CORE X_NUC_48.L_CORE 0.004152
K_276 X_NUC_4.L_CORE X_NUC_49.L_CORE 0.003564
K_277 X_NUC_4.L_CORE X_NUC_50.L_CORE 0.003548
K_278 X_NUC_4.L_CORE X_NUC_51.L_CORE 0.003506
K_279 X_NUC_4.L_CORE X_NUC_52.L_CORE 0.003542
K_280 X_NUC_4.L_CORE X_NUC_53.L_CORE 0.004120
K_281 X_NUC_4.L_CORE X_NUC_54.L_CORE 0.004143
K_282 X_NUC_4.L_CORE X_NUC_55.L_CORE 0.004081
K_283 X_NUC_4.L_CORE X_NUC_56.L_CORE 0.004072
K_284 X_NUC_4.L_CORE X_NUC_57.L_CORE 0.003489
K_285 X_NUC_4.L_CORE X_NUC_58.L_CORE 0.003460
K_286 X_NUC_4.L_CORE X_NUC_59.L_CORE 0.003437
K_287 X_NUC_4.L_CORE X_NUC_60.L_CORE 0.003441
K_288 X_NUC_4.L_CORE X_NUC_61.L_CORE 0.003468
K_289 X_NUC_4.L_CORE X_NUC_62.L_CORE 0.003472
K_290 X_NUC_4.L_CORE X_NUC_63.L_CORE 0.003422
K_291 X_NUC_4.L_CORE X_NUC_64.L_CORE 0.003443
K_292 X_NUC_4.L_CORE X_NUC_65.L_CORE 0.003489
K_293 X_NUC_4.L_CORE X_NUC_66.L_CORE 0.003483
K_294 X_NUC_4.L_CORE X_NUC_67.L_CORE 0.003447
K_295 X_NUC_4.L_CORE X_NUC_68.L_CORE 0.003444
K_296 X_NUC_4.L_CORE X_NUC_69.L_CORE 0.029596
K_297 X_NUC_4.L_CORE X_NUC_70.L_CORE 0.005926
K_298 X_NUC_4.L_CORE X_NUC_71.L_CORE 0.006039
K_299 X_NUC_4.L_CORE X_NUC_72.L_CORE 0.006171
K_300 X_NUC_4.L_CORE X_NUC_73.L_CORE 0.003879
K_301 X_NUC_4.L_CORE X_NUC_74.L_CORE 0.004960
K_302 X_NUC_4.L_CORE X_NUC_75.L_CORE 0.003758
K_303 X_NUC_4.L_CORE X_NUC_76.L_CORE 0.003433
K_304 X_NUC_4.L_CORE X_NUC_77.L_CORE 0.003786
K_305 X_NUC_4.L_CORE X_NUC_78.L_CORE 0.003054
K_306 X_NUC_4.L_CORE X_NUC_79.L_CORE 0.003144
K_307 X_NUC_5.L_CORE X_NUC_6.L_CORE 0.207973
K_308 X_NUC_5.L_CORE X_NUC_7.L_CORE 0.207973
K_309 X_NUC_5.L_CORE X_NUC_8.L_CORE 0.207973
K_310 X_NUC_5.L_CORE X_NUC_9.L_CORE 0.005463
K_311 X_NUC_5.L_CORE X_NUC_10.L_CORE 0.005599
K_312 X_NUC_5.L_CORE X_NUC_11.L_CORE 0.005492
K_313 X_NUC_5.L_CORE X_NUC_12.L_CORE 0.005545
K_314 X_NUC_5.L_CORE X_NUC_13.L_CORE 0.006699
K_315 X_NUC_5.L_CORE X_NUC_14.L_CORE 0.006799
K_316 X_NUC_5.L_CORE X_NUC_15.L_CORE 0.006803
K_317 X_NUC_5.L_CORE X_NUC_16.L_CORE 0.006619
K_318 X_NUC_5.L_CORE X_NUC_17.L_CORE 0.008324
K_319 X_NUC_5.L_CORE X_NUC_18.L_CORE 0.008343
K_320 X_NUC_5.L_CORE X_NUC_19.L_CORE 0.008087
K_321 X_NUC_5.L_CORE X_NUC_20.L_CORE 0.008373
K_322 X_NUC_5.L_CORE X_NUC_21.L_CORE 0.004161
K_323 X_NUC_5.L_CORE X_NUC_22.L_CORE 0.004241
K_324 X_NUC_5.L_CORE X_NUC_23.L_CORE 0.004189
K_325 X_NUC_5.L_CORE X_NUC_24.L_CORE 0.004176
K_326 X_NUC_5.L_CORE X_NUC_25.L_CORE 0.007910
K_327 X_NUC_5.L_CORE X_NUC_26.L_CORE 0.007806
K_328 X_NUC_5.L_CORE X_NUC_27.L_CORE 0.007798
K_329 X_NUC_5.L_CORE X_NUC_28.L_CORE 0.007625
K_330 X_NUC_5.L_CORE X_NUC_29.L_CORE 0.004509
K_331 X_NUC_5.L_CORE X_NUC_30.L_CORE 0.004568
K_332 X_NUC_5.L_CORE X_NUC_31.L_CORE 0.004473
K_333 X_NUC_5.L_CORE X_NUC_32.L_CORE 0.004535
K_334 X_NUC_5.L_CORE X_NUC_33.L_CORE 0.004113
K_335 X_NUC_5.L_CORE X_NUC_34.L_CORE 0.004163
K_336 X_NUC_5.L_CORE X_NUC_35.L_CORE 0.004131
K_337 X_NUC_5.L_CORE X_NUC_36.L_CORE 0.004084
K_338 X_NUC_5.L_CORE X_NUC_37.L_CORE 0.006130
K_339 X_NUC_5.L_CORE X_NUC_38.L_CORE 0.006069
K_340 X_NUC_5.L_CORE X_NUC_39.L_CORE 0.005962
K_341 X_NUC_5.L_CORE X_NUC_40.L_CORE 0.006018
K_342 X_NUC_5.L_CORE X_NUC_41.L_CORE 0.003539
K_343 X_NUC_5.L_CORE X_NUC_42.L_CORE 0.003588
K_344 X_NUC_5.L_CORE X_NUC_43.L_CORE 0.003533
K_345 X_NUC_5.L_CORE X_NUC_44.L_CORE 0.003543
K_346 X_NUC_5.L_CORE X_NUC_45.L_CORE 0.004474
K_347 X_NUC_5.L_CORE X_NUC_46.L_CORE 0.004482
K_348 X_NUC_5.L_CORE X_NUC_47.L_CORE 0.004451
K_349 X_NUC_5.L_CORE X_NUC_48.L_CORE 0.004397
K_350 X_NUC_5.L_CORE X_NUC_49.L_CORE 0.004152
K_351 X_NUC_5.L_CORE X_NUC_50.L_CORE 0.004169
K_352 X_NUC_5.L_CORE X_NUC_51.L_CORE 0.004091
K_353 X_NUC_5.L_CORE X_NUC_52.L_CORE 0.004134
K_354 X_NUC_5.L_CORE X_NUC_53.L_CORE 0.003368
K_355 X_NUC_5.L_CORE X_NUC_54.L_CORE 0.003403
K_356 X_NUC_5.L_CORE X_NUC_55.L_CORE 0.003363
K_357 X_NUC_5.L_CORE X_NUC_56.L_CORE 0.003350
K_358 X_NUC_5.L_CORE X_NUC_57.L_CORE 0.004236
K_359 X_NUC_5.L_CORE X_NUC_58.L_CORE 0.004228
K_360 X_NUC_5.L_CORE X_NUC_59.L_CORE 0.004177
K_361 X_NUC_5.L_CORE X_NUC_60.L_CORE 0.004169
K_362 X_NUC_5.L_CORE X_NUC_61.L_CORE 0.003384
K_363 X_NUC_5.L_CORE X_NUC_62.L_CORE 0.003410
K_364 X_NUC_5.L_CORE X_NUC_63.L_CORE 0.003357
K_365 X_NUC_5.L_CORE X_NUC_64.L_CORE 0.003369
K_366 X_NUC_5.L_CORE X_NUC_65.L_CORE 0.003443
K_367 X_NUC_5.L_CORE X_NUC_66.L_CORE 0.003461
K_368 X_NUC_5.L_CORE X_NUC_67.L_CORE 0.003420
K_369 X_NUC_5.L_CORE X_NUC_68.L_CORE 0.003409
K_370 X_NUC_5.L_CORE X_NUC_69.L_CORE 0.006446
K_371 X_NUC_5.L_CORE X_NUC_70.L_CORE 0.023788
K_372 X_NUC_5.L_CORE X_NUC_71.L_CORE 0.004439
K_373 X_NUC_5.L_CORE X_NUC_72.L_CORE 0.005155
K_374 X_NUC_5.L_CORE X_NUC_73.L_CORE 0.005767
K_375 X_NUC_5.L_CORE X_NUC_74.L_CORE 0.003376
K_376 X_NUC_5.L_CORE X_NUC_75.L_CORE 0.004999
K_377 X_NUC_5.L_CORE X_NUC_76.L_CORE 0.003498
K_378 X_NUC_5.L_CORE X_NUC_77.L_CORE 0.003248
K_379 X_NUC_5.L_CORE X_NUC_78.L_CORE 0.003744
K_380 X_NUC_5.L_CORE X_NUC_79.L_CORE 0.002991
K_381 X_NUC_6.L_CORE X_NUC_7.L_CORE 0.207973
K_382 X_NUC_6.L_CORE X_NUC_8.L_CORE 0.207973
K_383 X_NUC_6.L_CORE X_NUC_9.L_CORE 0.005333
K_384 X_NUC_6.L_CORE X_NUC_10.L_CORE 0.005463
K_385 X_NUC_6.L_CORE X_NUC_11.L_CORE 0.005361
K_386 X_NUC_6.L_CORE X_NUC_12.L_CORE 0.005411
K_387 X_NUC_6.L_CORE X_NUC_13.L_CORE 0.006596
K_388 X_NUC_6.L_CORE X_NUC_14.L_CORE 0.006699
K_389 X_NUC_6.L_CORE X_NUC_15.L_CORE 0.006699
K_390 X_NUC_6.L_CORE X_NUC_16.L_CORE 0.006523
K_391 X_NUC_6.L_CORE X_NUC_17.L_CORE 0.008292
K_392 X_NUC_6.L_CORE X_NUC_18.L_CORE 0.008324
K_393 X_NUC_6.L_CORE X_NUC_19.L_CORE 0.008063
K_394 X_NUC_6.L_CORE X_NUC_20.L_CORE 0.008347
K_395 X_NUC_6.L_CORE X_NUC_21.L_CORE 0.004084
K_396 X_NUC_6.L_CORE X_NUC_22.L_CORE 0.004161
K_397 X_NUC_6.L_CORE X_NUC_23.L_CORE 0.004111
K_398 X_NUC_6.L_CORE X_NUC_24.L_CORE 0.004099
K_399 X_NUC_6.L_CORE X_NUC_25.L_CORE 0.008006
K_400 X_NUC_6.L_CORE X_NUC_26.L_CORE 0.007910
K_401 X_NUC_6.L_CORE X_NUC_27.L_CORE 0.007896
K_402 X_NUC_6.L_CORE X_NUC_28.L_CORE 0.007717
K_403 X_NUC_6.L_CORE X_NUC_29.L_CORE 0.004451
K_404 X_NUC_6.L_CORE X_NUC_30.L_CORE 0.004509
K_405 X_NUC_6.L_CORE X_NUC_31.L_CORE 0.004417
K_406 X_NUC_6.L_CORE X_NUC_32.L_CORE 0.004477
K_407 X_NUC_6.L_CORE X_NUC_33.L_CORE 0.004062
K_408 X_NUC_6.L_CORE X_NUC_34.L_CORE 0.004113
K_409 X_NUC_6.L_CORE X_NUC_35.L_CORE 0.004081
K_410 X_NUC_6.L_CORE X_NUC_36.L_CORE 0.004035
K_411 X_NUC_6.L_CORE X_NUC_37.L_CORE 0.006188
K_412 X_NUC_6.L_CORE X_NUC_38.L_CORE 0.006130
K_413 X_NUC_6.L_CORE X_NUC_39.L_CORE 0.006017
K_414 X_NUC_6.L_CORE X_NUC_40.L_CORE 0.006075
K_415 X_NUC_6.L_CORE X_NUC_41.L_CORE 0.003491
K_416 X_NUC_6.L_CORE X_NUC_42.L_CORE 0.003539
K_417 X_NUC_6.L_CORE X_NUC_43.L_CORE 0.003486
K_418 X_NUC_6.L_CORE X_NUC_44.L_CORE 0.003496
K_419 X_NUC_6.L_CORE X_NUC_45.L_CORE 0.004465
K_420 X_NUC_6.L_CORE X_NUC_46.L_CORE 0.004474
K_421 X_NUC_6.L_CORE X_NUC_47.L_CORE 0.004443
K_422 X_NUC_6.L_CORE X_NUC_48.L_CORE 0.004389
K_423 X_NUC_6.L_CORE X_NUC_49.L_CORE 0.004133
K_424 X_NUC_6.L_CORE X_NUC_50.L_CORE 0.004152
K_425 X_NUC_6.L_CORE X_NUC_51.L_CORE 0.004074
K_426 X_NUC_6.L_CORE X_NUC_52.L_CORE 0.004116
K_427 X_NUC_6.L_CORE X_NUC_53.L_CORE 0.003333
K_428 X_NUC_6.L_CORE X_NUC_54.L_CORE 0.003368
K_429 X_NUC_6.L_CORE X_NUC_55.L_CORE 0.003329
K_430 X_NUC_6.L_CORE X_NUC_56.L_CORE 0.003316
K_431 X_NUC_6.L_CORE X_NUC_57.L_CORE 0.004243
K_432 X_NUC_6.L_CORE X_NUC_58.L_CORE 0.004236
K_433 X_NUC_6.L_CORE X_NUC_59.L_CORE 0.004184
K_434 X_NUC_6.L_CORE X_NUC_60.L_CORE 0.004176
K_435 X_NUC_6.L_CORE X_NUC_61.L_CORE 0.003358
K_436 X_NUC_6.L_CORE X_NUC_62.L_CORE 0.003384
K_437 X_NUC_6.L_CORE X_NUC_63.L_CORE 0.003332
K_438 X_NUC_6.L_CORE X_NUC_64.L_CORE 0.003344
K_439 X_NUC_6.L_CORE X_NUC_65.L_CORE 0.003425
K_440 X_NUC_6.L_CORE X_NUC_66.L_CORE 0.003443
K_441 X_NUC_6.L_CORE X_NUC_67.L_CORE 0.003402
K_442 X_NUC_6.L_CORE X_NUC_68.L_CORE 0.003392
K_443 X_NUC_6.L_CORE X_NUC_69.L_CORE 0.006272
K_444 X_NUC_6.L_CORE X_NUC_70.L_CORE 0.026820
K_445 X_NUC_6.L_CORE X_NUC_71.L_CORE 0.004356
K_446 X_NUC_6.L_CORE X_NUC_72.L_CORE 0.005113
K_447 X_NUC_6.L_CORE X_NUC_73.L_CORE 0.005782
K_448 X_NUC_6.L_CORE X_NUC_74.L_CORE 0.003328
K_449 X_NUC_6.L_CORE X_NUC_75.L_CORE 0.005042
K_450 X_NUC_6.L_CORE X_NUC_76.L_CORE 0.003470
K_451 X_NUC_6.L_CORE X_NUC_77.L_CORE 0.003223
K_452 X_NUC_6.L_CORE X_NUC_78.L_CORE 0.003752
K_453 X_NUC_6.L_CORE X_NUC_79.L_CORE 0.002970
K_454 X_NUC_7.L_CORE X_NUC_8.L_CORE 0.207973
K_455 X_NUC_7.L_CORE X_NUC_9.L_CORE 0.005430
K_456 X_NUC_7.L_CORE X_NUC_10.L_CORE 0.005566
K_457 X_NUC_7.L_CORE X_NUC_11.L_CORE 0.005463
K_458 X_NUC_7.L_CORE X_NUC_12.L_CORE 0.005513
K_459 X_NUC_7.L_CORE X_NUC_13.L_CORE 0.006592
K_460 X_NUC_7.L_CORE X_NUC_14.L_CORE 0.006692
K_461 X_NUC_7.L_CORE X_NUC_15.L_CORE 0.006699
K_462 X_NUC_7.L_CORE X_NUC_16.L_CORE 0.006520
K_463 X_NUC_7.L_CORE X_NUC_17.L_CORE 0.008569
K_464 X_NUC_7.L_CORE X_NUC_18.L_CORE 0.008598
K_465 X_NUC_7.L_CORE X_NUC_19.L_CORE 0.008324
K_466 X_NUC_7.L_CORE X_NUC_20.L_CORE 0.008630
K_467 X_NUC_7.L_CORE X_NUC_21.L_CORE 0.004133
K_468 X_NUC_7.L_CORE X_NUC_22.L_CORE 0.004212
K_469 X_NUC_7.L_CORE X_NUC_23.L_CORE 0.004161
K_470 X_NUC_7.L_CORE X_NUC_24.L_CORE 0.004149
K_471 X_NUC_7.L_CORE X_NUC_25.L_CORE 0.008015
K_472 X_NUC_7.L_CORE X_NUC_26.L_CORE 0.007912
K_473 X_NUC_7.L_CORE X_NUC_27.L_CORE 0.007910
K_474 X_NUC_7.L_CORE X_NUC_28.L_CORE 0.007725
K_475 X_NUC_7.L_CORE X_NUC_29.L_CORE 0.004544
K_476 X_NUC_7.L_CORE X_NUC_30.L_CORE 0.004605
K_477 X_NUC_7.L_CORE X_NUC_31.L_CORE 0.004509
K_478 X_NUC_7.L_CORE X_NUC_32.L_CORE 0.004572
K_479 X_NUC_7.L_CORE X_NUC_33.L_CORE 0.004093
K_480 X_NUC_7.L_CORE X_NUC_34.L_CORE 0.004143
K_481 X_NUC_7.L_CORE X_NUC_35.L_CORE 0.004113
K_482 X_NUC_7.L_CORE X_NUC_36.L_CORE 0.004065
K_483 X_NUC_7.L_CORE X_NUC_37.L_CORE 0.006308
K_484 X_NUC_7.L_CORE X_NUC_38.L_CORE 0.006244
K_485 X_NUC_7.L_CORE X_NUC_39.L_CORE 0.006130
K_486 X_NUC_7.L_CORE X_NUC_40.L_CORE 0.006189
K_487 X_NUC_7.L_CORE X_NUC_41.L_CORE 0.003544
K_488 X_NUC_7.L_CORE X_NUC_42.L_CORE 0.003593
K_489 X_NUC_7.L_CORE X_NUC_43.L_CORE 0.003539
K_490 X_NUC_7.L_CORE X_NUC_44.L_CORE 0.003549
K_491 X_NUC_7.L_CORE X_NUC_45.L_CORE 0.004496
K_492 X_NUC_7.L_CORE X_NUC_46.L_CORE 0.004505
K_493 X_NUC_7.L_CORE X_NUC_47.L_CORE 0.004474
K_494 X_NUC_7.L_CORE X_NUC_48.L_CORE 0.004418
K_495 X_NUC_7.L_CORE X_NUC_49.L_CORE 0.004213
K_496 X_NUC_7.L_CORE X_NUC_50.L_CORE 0.004232
K_497 X_NUC_7.L_CORE X_NUC_51.L_CORE 0.004152
K_498 X_NUC_7.L_CORE X_NUC_52.L_CORE 0.004195
K_499 X_NUC_7.L_CORE X_NUC_53.L_CORE 0.003371
K_500 X_NUC_7.L_CORE X_NUC_54.L_CORE 0.003407
K_501 X_NUC_7.L_CORE X_NUC_55.L_CORE 0.003368
K_502 X_NUC_7.L_CORE X_NUC_56.L_CORE 0.003354
K_503 X_NUC_7.L_CORE X_NUC_57.L_CORE 0.004297
K_504 X_NUC_7.L_CORE X_NUC_58.L_CORE 0.004289
K_505 X_NUC_7.L_CORE X_NUC_59.L_CORE 0.004236
K_506 X_NUC_7.L_CORE X_NUC_60.L_CORE 0.004227
K_507 X_NUC_7.L_CORE X_NUC_61.L_CORE 0.003410
K_508 X_NUC_7.L_CORE X_NUC_62.L_CORE 0.003437
K_509 X_NUC_7.L_CORE X_NUC_63.L_CORE 0.003384
K_510 X_NUC_7.L_CORE X_NUC_64.L_CORE 0.003396
K_511 X_NUC_7.L_CORE X_NUC_65.L_CORE 0.003466
K_512 X_NUC_7.L_CORE X_NUC_66.L_CORE 0.003484
K_513 X_NUC_7.L_CORE X_NUC_67.L_CORE 0.003443
K_514 X_NUC_7.L_CORE X_NUC_68.L_CORE 0.003432
K_515 X_NUC_7.L_CORE X_NUC_69.L_CORE 0.006287
K_516 X_NUC_7.L_CORE X_NUC_70.L_CORE 0.024833
K_517 X_NUC_7.L_CORE X_NUC_71.L_CORE 0.004424
K_518 X_NUC_7.L_CORE X_NUC_72.L_CORE 0.005105
K_519 X_NUC_7.L_CORE X_NUC_73.L_CORE 0.005906
K_520 X_NUC_7.L_CORE X_NUC_74.L_CORE 0.003364
K_521 X_NUC_7.L_CORE X_NUC_75.L_CORE 0.005061
K_522 X_NUC_7.L_CORE X_NUC_76.L_CORE 0.003529
K_523 X_NUC_7.L_CORE X_NUC_77.L_CORE 0.003250
K_524 X_NUC_7.L_CORE X_NUC_78.L_CORE 0.003801
K_525 X_NUC_7.L_CORE X_NUC_79.L_CORE 0.003009
K_526 X_NUC_8.L_CORE X_NUC_9.L_CORE 0.005380
K_527 X_NUC_8.L_CORE X_NUC_10.L_CORE 0.005512
K_528 X_NUC_8.L_CORE X_NUC_11.L_CORE 0.005410
K_529 X_NUC_8.L_CORE X_NUC_12.L_CORE 0.005463
K_530 X_NUC_8.L_CORE X_NUC_13.L_CORE 0.006774
K_531 X_NUC_8.L_CORE X_NUC_14.L_CORE 0.006882
K_532 X_NUC_8.L_CORE X_NUC_15.L_CORE 0.006886
K_533 X_NUC_8.L_CORE X_NUC_16.L_CORE 0.006699
K_534 X_NUC_8.L_CORE X_NUC_17.L_CORE 0.008263
K_535 X_NUC_8.L_CORE X_NUC_18.L_CORE 0.008288
K_536 X_NUC_8.L_CORE X_NUC_19.L_CORE 0.008037
K_537 X_NUC_8.L_CORE X_NUC_20.L_CORE 0.008324
K_538 X_NUC_8.L_CORE X_NUC_21.L_CORE 0.004145
K_539 X_NUC_8.L_CORE X_NUC_22.L_CORE 0.004225
K_540 X_NUC_8.L_CORE X_NUC_23.L_CORE 0.004173
K_541 X_NUC_8.L_CORE X_NUC_24.L_CORE 0.004161
K_542 X_NUC_8.L_CORE X_NUC_25.L_CORE 0.008215
K_543 X_NUC_8.L_CORE X_NUC_26.L_CORE 0.008105
K_544 X_NUC_8.L_CORE X_NUC_27.L_CORE 0.008096
K_545 X_NUC_8.L_CORE X_NUC_28.L_CORE 0.007910
K_546 X_NUC_8.L_CORE X_NUC_29.L_CORE 0.004482
K_547 X_NUC_8.L_CORE X_NUC_30.L_CORE 0.004540
K_548 X_NUC_8.L_CORE X_NUC_31.L_CORE 0.004447
K_549 X_NUC_8.L_CORE X_NUC_32.L_CORE 0.004509
K_550 X_NUC_8.L_CORE X_NUC_33.L_CORE 0.004140
K_551 X_NUC_8.L_CORE X_NUC_34.L_CORE 0.004193
K_552 X_NUC_8.L_CORE X_NUC_35.L_CORE 0.004160
K_553 X_NUC_8.L_CORE X_NUC_36.L_CORE 0.004113
K_554 X_NUC_8.L_CORE X_NUC_37.L_CORE 0.006243
K_555 X_NUC_8.L_CORE X_NUC_38.L_CORE 0.006181
K_556 X_NUC_8.L_CORE X_NUC_39.L_CORE 0.006068
K_557 X_NUC_8.L_CORE X_NUC_40.L_CORE 0.006130
K_558 X_NUC_8.L_CORE X_NUC_41.L_CORE 0.003534
K_559 X_NUC_8.L_CORE X_NUC_42.L_CORE 0.003583
K_560 X_NUC_8.L_CORE X_NUC_43.L_CORE 0.003529
K_561 X_NUC_8.L_CORE X_NUC_44.L_CORE 0.003539
K_562 X_NUC_8.L_CORE X_NUC_45.L_CORE 0.004554
K_563 X_NUC_8.L_CORE X_NUC_46.L_CORE 0.004563
K_564 X_NUC_8.L_CORE X_NUC_47.L_CORE 0.004531
K_565 X_NUC_8.L_CORE X_NUC_48.L_CORE 0.004474
K_566 X_NUC_8.L_CORE X_NUC_49.L_CORE 0.004169
K_567 X_NUC_8.L_CORE X_NUC_50.L_CORE 0.004187
K_568 X_NUC_8.L_CORE X_NUC_51.L_CORE 0.004108
K_569 X_NUC_8.L_CORE X_NUC_52.L_CORE 0.004152
K_570 X_NUC_8.L_CORE X_NUC_53.L_CORE 0.003384
K_571 X_NUC_8.L_CORE X_NUC_54.L_CORE 0.003420
K_572 X_NUC_8.L_CORE X_NUC_55.L_CORE 0.003380
K_573 X_NUC_8.L_CORE X_NUC_56.L_CORE 0.003368
K_574 X_NUC_8.L_CORE X_NUC_57.L_CORE 0.004305
K_575 X_NUC_8.L_CORE X_NUC_58.L_CORE 0.004298
K_576 X_NUC_8.L_CORE X_NUC_59.L_CORE 0.004244
K_577 X_NUC_8.L_CORE X_NUC_60.L_CORE 0.004236
K_578 X_NUC_8.L_CORE X_NUC_61.L_CORE 0.003398
K_579 X_NUC_8.L_CORE X_NUC_62.L_CORE 0.003424
K_580 X_NUC_8.L_CORE X_NUC_63.L_CORE 0.003371
K_581 X_NUC_8.L_CORE X_NUC_64.L_CORE 0.003384
K_582 X_NUC_8.L_CORE X_NUC_65.L_CORE 0.003477
K_583 X_NUC_8.L_CORE X_NUC_66.L_CORE 0.003496
K_584 X_NUC_8.L_CORE X_NUC_67.L_CORE 0.003454
K_585 X_NUC_8.L_CORE X_NUC_68.L_CORE 0.003443
K_586 X_NUC_8.L_CORE X_NUC_69.L_CORE 0.006358
K_587 X_NUC_8.L_CORE X_NUC_70.L_CORE 0.024708
K_588 X_NUC_8.L_CORE X_NUC_71.L_CORE 0.004385
K_589 X_NUC_8.L_CORE X_NUC_72.L_CORE 0.005219
K_590 X_NUC_8.L_CORE X_NUC_73.L_CORE 0.005768
K_591 X_NUC_8.L_CORE X_NUC_74.L_CORE 0.003372