* Applied Vacuum Engineering (AVE) - SPICE Netlist
* Element: Technetium-98 (Z=43, A=98)
* Auto-generated topological mutual impedance array
* Nodes: 98



* -----------------------------------------------------------------
* NUCLEON (Baseline 6^3_2 Topological Defect)
* -----------------------------------------------------------------
.SUBCKT NUCLEON IN OUT
L_CORE IN OUT 1uH
C_CORE IN OUT 1pF
.ENDS NUCLEON



* -----------------------------------------------------------------
* MACROSCOPIC TOPOLOGY (Nucleon Array)
* -----------------------------------------------------------------
V_STIM NODE_1 0 AC 1 PULSE(0 100k 10n 1n 1n 50n 100n)

X_NUC_1 NODE_1 0 NUCLEON
X_NUC_2 NODE_2 0 NUCLEON
X_NUC_3 NODE_3 0 NUCLEON
X_NUC_4 NODE_4 0 NUCLEON
X_NUC_5 NODE_5 0 NUCLEON
X_NUC_6 NODE_6 0 NUCLEON
X_NUC_7 NODE_7 0 NUCLEON
X_NUC_8 NODE_8 0 NUCLEON
X_NUC_9 NODE_9 0 NUCLEON
X_NUC_10 NODE_10 0 NUCLEON
X_NUC_11 NODE_11 0 NUCLEON
X_NUC_12 NODE_12 0 NUCLEON
X_NUC_13 NODE_13 0 NUCLEON
X_NUC_14 NODE_14 0 NUCLEON
X_NUC_15 NODE_15 0 NUCLEON
X_NUC_16 NODE_16 0 NUCLEON
X_NUC_17 NODE_17 0 NUCLEON
X_NUC_18 NODE_18 0 NUCLEON
X_NUC_19 NODE_19 0 NUCLEON
X_NUC_20 NODE_20 0 NUCLEON
X_NUC_21 NODE_21 0 NUCLEON
X_NUC_22 NODE_22 0 NUCLEON
X_NUC_23 NODE_23 0 NUCLEON
X_NUC_24 NODE_24 0 NUCLEON
X_NUC_25 NODE_25 0 NUCLEON
X_NUC_26 NODE_26 0 NUCLEON
X_NUC_27 NODE_27 0 NUCLEON
X_NUC_28 NODE_28 0 NUCLEON
X_NUC_29 NODE_29 0 NUCLEON
X_NUC_30 NODE_30 0 NUCLEON
X_NUC_31 NODE_31 0 NUCLEON
X_NUC_32 NODE_32 0 NUCLEON
X_NUC_33 NODE_33 0 NUCLEON
X_NUC_34 NODE_34 0 NUCLEON
X_NUC_35 NODE_35 0 NUCLEON
X_NUC_36 NODE_36 0 NUCLEON
X_NUC_37 NODE_37 0 NUCLEON
X_NUC_38 NODE_38 0 NUCLEON
X_NUC_39 NODE_39 0 NUCLEON
X_NUC_40 NODE_40 0 NUCLEON
X_NUC_41 NODE_41 0 NUCLEON
X_NUC_42 NODE_42 0 NUCLEON
X_NUC_43 NODE_43 0 NUCLEON
X_NUC_44 NODE_44 0 NUCLEON
X_NUC_45 NODE_45 0 NUCLEON
X_NUC_46 NODE_46 0 NUCLEON
X_NUC_47 NODE_47 0 NUCLEON
X_NUC_48 NODE_48 0 NUCLEON
X_NUC_49 NODE_49 0 NUCLEON
X_NUC_50 NODE_50 0 NUCLEON
X_NUC_51 NODE_51 0 NUCLEON
X_NUC_52 NODE_52 0 NUCLEON
X_NUC_53 NODE_53 0 NUCLEON
X_NUC_54 NODE_54 0 NUCLEON
X_NUC_55 NODE_55 0 NUCLEON
X_NUC_56 NODE_56 0 NUCLEON
X_NUC_57 NODE_57 0 NUCLEON
X_NUC_58 NODE_58 0 NUCLEON
X_NUC_59 NODE_59 0 NUCLEON
X_NUC_60 NODE_60 0 NUCLEON
X_NUC_61 NODE_61 0 NUCLEON
X_NUC_62 NODE_62 0 NUCLEON
X_NUC_63 NODE_63 0 NUCLEON
X_NUC_64 NODE_64 0 NUCLEON
X_NUC_65 NODE_65 0 NUCLEON
X_NUC_66 NODE_66 0 NUCLEON
X_NUC_67 NODE_67 0 NUCLEON
X_NUC_68 NODE_68 0 NUCLEON
X_NUC_69 NODE_69 0 NUCLEON
X_NUC_70 NODE_70 0 NUCLEON
X_NUC_71 NODE_71 0 NUCLEON
X_NUC_72 NODE_72 0 NUCLEON
X_NUC_73 NODE_73 0 NUCLEON
X_NUC_74 NODE_74 0 NUCLEON
X_NUC_75 NODE_75 0 NUCLEON
X_NUC_76 NODE_76 0 NUCLEON
X_NUC_77 NODE_77 0 NUCLEON
X_NUC_78 NODE_78 0 NUCLEON
X_NUC_79 NODE_79 0 NUCLEON
X_NUC_80 NODE_80 0 NUCLEON
X_NUC_81 NODE_81 0 NUCLEON
X_NUC_82 NODE_82 0 NUCLEON
X_NUC_83 NODE_83 0 NUCLEON
X_NUC_84 NODE_84 0 NUCLEON
X_NUC_85 NODE_85 0 NUCLEON
X_NUC_86 NODE_86 0 NUCLEON
X_NUC_87 NODE_87 0 NUCLEON
X_NUC_88 NODE_88 0 NUCLEON
X_NUC_89 NODE_89 0 NUCLEON
X_NUC_90 NODE_90 0 NUCLEON
X_NUC_91 NODE_91 0 NUCLEON
X_NUC_92 NODE_92 0 NUCLEON
X_NUC_93 NODE_93 0 NUCLEON
X_NUC_94 NODE_94 0 NUCLEON
X_NUC_95 NODE_95 0 NUCLEON
X_NUC_96 NODE_96 0 NUCLEON
X_NUC_97 NODE_97 0 NUCLEON
X_NUC_98 NODE_98 0 NUCLEON


* -----------------------------------------------------------------
* SPATIAL MUTUAL INDUCTANCE (K-FACTORS)
* -----------------------------------------------------------------
K_1 X_NUC_1.L_CORE X_NUC_2.L_CORE 0.207973
K_2 X_NUC_1.L_CORE X_NUC_3.L_CORE 0.207973
K_3 X_NUC_1.L_CORE X_NUC_4.L_CORE 0.207973
K_4 X_NUC_1.L_CORE X_NUC_5.L_CORE 0.007031
K_5 X_NUC_1.L_CORE X_NUC_6.L_CORE 0.006813
K_6 X_NUC_1.L_CORE X_NUC_7.L_CORE 0.006864
K_7 X_NUC_1.L_CORE X_NUC_8.L_CORE 0.006933
K_8 X_NUC_1.L_CORE X_NUC_9.L_CORE 0.007588
K_9 X_NUC_1.L_CORE X_NUC_10.L_CORE 0.007694
K_10 X_NUC_1.L_CORE X_NUC_11.L_CORE 0.007467
K_11 X_NUC_1.L_CORE X_NUC_12.L_CORE 0.007710
K_12 X_NUC_1.L_CORE X_NUC_13.L_CORE 0.008080
K_13 X_NUC_1.L_CORE X_NUC_14.L_CORE 0.007932
K_14 X_NUC_1.L_CORE X_NUC_15.L_CORE 0.008029
K_15 X_NUC_1.L_CORE X_NUC_16.L_CORE 0.007800
K_16 X_NUC_1.L_CORE X_NUC_17.L_CORE 0.004592
K_17 X_NUC_1.L_CORE X_NUC_18.L_CORE 0.004533
K_18 X_NUC_1.L_CORE X_NUC_19.L_CORE 0.004503
K_19 X_NUC_1.L_CORE X_NUC_20.L_CORE 0.004576
K_20 X_NUC_1.L_CORE X_NUC_21.L_CORE 0.006799
K_21 X_NUC_1.L_CORE X_NUC_22.L_CORE 0.006981
K_22 X_NUC_1.L_CORE X_NUC_23.L_CORE 0.006788
K_23 X_NUC_1.L_CORE X_NUC_24.L_CORE 0.006795
K_24 X_NUC_1.L_CORE X_NUC_25.L_CORE 0.004565
K_25 X_NUC_1.L_CORE X_NUC_26.L_CORE 0.004481
K_26 X_NUC_1.L_CORE X_NUC_27.L_CORE 0.004499
K_27 X_NUC_1.L_CORE X_NUC_28.L_CORE 0.004480
K_28 X_NUC_1.L_CORE X_NUC_29.L_CORE 0.004143
K_29 X_NUC_1.L_CORE X_NUC_30.L_CORE 0.004147
K_30 X_NUC_1.L_CORE X_NUC_31.L_CORE 0.004081
K_31 X_NUC_1.L_CORE X_NUC_32.L_CORE 0.004150
K_32 X_NUC_1.L_CORE X_NUC_33.L_CORE 0.005249
K_33 X_NUC_1.L_CORE X_NUC_34.L_CORE 0.005273
K_34 X_NUC_1.L_CORE X_NUC_35.L_CORE 0.005234
K_35 X_NUC_1.L_CORE X_NUC_36.L_CORE 0.005151
K_36 X_NUC_1.L_CORE X_NUC_37.L_CORE 0.003527
K_37 X_NUC_1.L_CORE X_NUC_38.L_CORE 0.003484
K_38 X_NUC_1.L_CORE X_NUC_39.L_CORE 0.003471
K_39 X_NUC_1.L_CORE X_NUC_40.L_CORE 0.003494
K_40 X_NUC_1.L_CORE X_NUC_41.L_CORE 0.004123
K_41 X_NUC_1.L_CORE X_NUC_42.L_CORE 0.004168
K_42 X_NUC_1.L_CORE X_NUC_43.L_CORE 0.004087
K_43 X_NUC_1.L_CORE X_NUC_44.L_CORE 0.004121
K_44 X_NUC_1.L_CORE X_NUC_45.L_CORE 0.003848
K_45 X_NUC_1.L_CORE X_NUC_46.L_CORE 0.003814
K_46 X_NUC_1.L_CORE X_NUC_47.L_CORE 0.003810
K_47 X_NUC_1.L_CORE X_NUC_48.L_CORE 0.003778
K_48 X_NUC_1.L_CORE X_NUC_49.L_CORE 0.003206
K_49 X_NUC_1.L_CORE X_NUC_50.L_CORE 0.003192
K_50 X_NUC_1.L_CORE X_NUC_51.L_CORE 0.003159
K_51 X_NUC_1.L_CORE X_NUC_52.L_CORE 0.003192
K_52 X_NUC_1.L_CORE X_NUC_53.L_CORE 0.003874
K_53 X_NUC_1.L_CORE X_NUC_54.L_CORE 0.003904
K_54 X_NUC_1.L_CORE X_NUC_55.L_CORE 0.003851
K_55 X_NUC_1.L_CORE X_NUC_56.L_CORE 0.003836
K_56 X_NUC_1.L_CORE X_NUC_57.L_CORE 0.003116
K_57 X_NUC_1.L_CORE X_NUC_58.L_CORE 0.003086
K_58 X_NUC_1.L_CORE X_NUC_59.L_CORE 0.003075
K_59 X_NUC_1.L_CORE X_NUC_60.L_CORE 0.003077
K_60 X_NUC_1.L_CORE X_NUC_61.L_CORE 0.003154
K_61 X_NUC_1.L_CORE X_NUC_62.L_CORE 0.003163
K_62 X_NUC_1.L_CORE X_NUC_63.L_CORE 0.003118
K_63 X_NUC_1.L_CORE X_NUC_64.L_CORE 0.003143
K_64 X_NUC_1.L_CORE X_NUC_65.L_CORE 0.003308
K_65 X_NUC_1.L_CORE X_NUC_66.L_CORE 0.003303
K_66 X_NUC_1.L_CORE X_NUC_67.L_CORE 0.003281
K_67 X_NUC_1.L_CORE X_NUC_68.L_CORE 0.003262
K_68 X_NUC_1.L_CORE X_NUC_69.L_CORE 0.002820
K_69 X_NUC_1.L_CORE X_NUC_70.L_CORE 0.002805
K_70 X_NUC_1.L_CORE X_NUC_71.L_CORE 0.002783
K_71 X_NUC_1.L_CORE X_NUC_72.L_CORE 0.002797
K_72 X_NUC_1.L_CORE X_NUC_73.L_CORE 0.003056
K_73 X_NUC_1.L_CORE X_NUC_74.L_CORE 0.003066
K_74 X_NUC_1.L_CORE X_NUC_75.L_CORE 0.003028
K_75 X_NUC_1.L_CORE X_NUC_76.L_CORE 0.003033
K_76 X_NUC_1.L_CORE X_NUC_77.L_CORE 0.002849
K_77 X_NUC_1.L_CORE X_NUC_78.L_CORE 0.002837
K_78 X_NUC_1.L_CORE X_NUC_79.L_CORE 0.002819
K_79 X_NUC_1.L_CORE X_NUC_80.L_CORE 0.002816
K_80 X_NUC_1.L_CORE X_NUC_81.L_CORE 0.002744
K_81 X_NUC_1.L_CORE X_NUC_82.L_CORE 0.002740
K_82 X_NUC_1.L_CORE X_NUC_83.L_CORE 0.002713
K_83 X_NUC_1.L_CORE X_NUC_84.L_CORE 0.002722
K_84 X_NUC_1.L_CORE X_NUC_85.L_CORE 0.031968
K_85 X_NUC_1.L_CORE X_NUC_86.L_CORE 0.005540
K_86 X_NUC_1.L_CORE X_NUC_87.L_CORE 0.005812
K_87 X_NUC_1.L_CORE X_NUC_88.L_CORE 0.005764
K_88 X_NUC_1.L_CORE X_NUC_89.L_CORE 0.003625
K_89 X_NUC_1.L_CORE X_NUC_90.L_CORE 0.004795
K_90 X_NUC_1.L_CORE X_NUC_91.L_CORE 0.003487
K_91 X_NUC_1.L_CORE X_NUC_92.L_CORE 0.003216
K_92 X_NUC_1.L_CORE X_NUC_93.L_CORE 0.003669
K_93 X_NUC_1.L_CORE X_NUC_94.L_CORE 0.002782
K_94 X_NUC_1.L_CORE X_NUC_95.L_CORE 0.003032
K_95 X_NUC_1.L_CORE X_NUC_96.L_CORE 0.002839
K_96 X_NUC_1.L_CORE X_NUC_97.L_CORE 0.002556
K_97 X_NUC_1.L_CORE X_NUC_98.L_CORE 0.002655
K_98 X_NUC_2.L_CORE X_NUC_3.L_CORE 0.207973
K_99 X_NUC_2.L_CORE X_NUC_4.L_CORE 0.207973
K_100 X_NUC_2.L_CORE X_NUC_5.L_CORE 0.007262
K_101 X_NUC_2.L_CORE X_NUC_6.L_CORE 0.007031
K_102 X_NUC_2.L_CORE X_NUC_7.L_CORE 0.007083
K_103 X_NUC_2.L_CORE X_NUC_8.L_CORE 0.007159
K_104 X_NUC_2.L_CORE X_NUC_9.L_CORE 0.007477
K_105 X_NUC_2.L_CORE X_NUC_10.L_CORE 0.007588
K_106 X_NUC_2.L_CORE X_NUC_11.L_CORE 0.007365
K_107 X_NUC_2.L_CORE X_NUC_12.L_CORE 0.007599
K_108 X_NUC_2.L_CORE X_NUC_13.L_CORE 0.008223
K_109 X_NUC_2.L_CORE X_NUC_14.L_CORE 0.008080
K_110 X_NUC_2.L_CORE X_NUC_15.L_CORE 0.008176
K_111 X_NUC_2.L_CORE X_NUC_16.L_CORE 0.007934
K_112 X_NUC_2.L_CORE X_NUC_17.L_CORE 0.004650
K_113 X_NUC_2.L_CORE X_NUC_18.L_CORE 0.004592
K_114 X_NUC_2.L_CORE X_NUC_19.L_CORE 0.004559
K_115 X_NUC_2.L_CORE X_NUC_20.L_CORE 0.004636
K_116 X_NUC_2.L_CORE X_NUC_21.L_CORE 0.006624
K_117 X_NUC_2.L_CORE X_NUC_22.L_CORE 0.006799
K_118 X_NUC_2.L_CORE X_NUC_23.L_CORE 0.006617
K_119 X_NUC_2.L_CORE X_NUC_24.L_CORE 0.006623
K_120 X_NUC_2.L_CORE X_NUC_25.L_CORE 0.004652
K_121 X_NUC_2.L_CORE X_NUC_26.L_CORE 0.004565
K_122 X_NUC_2.L_CORE X_NUC_27.L_CORE 0.004583
K_123 X_NUC_2.L_CORE X_NUC_28.L_CORE 0.004563
K_124 X_NUC_2.L_CORE X_NUC_29.L_CORE 0.004138
K_125 X_NUC_2.L_CORE X_NUC_30.L_CORE 0.004143
K_126 X_NUC_2.L_CORE X_NUC_31.L_CORE 0.004076
K_127 X_NUC_2.L_CORE X_NUC_32.L_CORE 0.004146
K_128 X_NUC_2.L_CORE X_NUC_33.L_CORE 0.005222
K_129 X_NUC_2.L_CORE X_NUC_34.L_CORE 0.005249
K_130 X_NUC_2.L_CORE X_NUC_35.L_CORE 0.005209
K_131 X_NUC_2.L_CORE X_NUC_36.L_CORE 0.005127
K_132 X_NUC_2.L_CORE X_NUC_37.L_CORE 0.003572
K_133 X_NUC_2.L_CORE X_NUC_38.L_CORE 0.003527
K_134 X_NUC_2.L_CORE X_NUC_39.L_CORE 0.003514
K_135 X_NUC_2.L_CORE X_NUC_40.L_CORE 0.003537
K_136 X_NUC_2.L_CORE X_NUC_41.L_CORE 0.004078
K_137 X_NUC_2.L_CORE X_NUC_42.L_CORE 0.004123
K_138 X_NUC_2.L_CORE X_NUC_43.L_CORE 0.004044
K_139 X_NUC_2.L_CORE X_NUC_44.L_CORE 0.004077
K_140 X_NUC_2.L_CORE X_NUC_45.L_CORE 0.003882
K_141 X_NUC_2.L_CORE X_NUC_46.L_CORE 0.003848
K_142 X_NUC_2.L_CORE X_NUC_47.L_CORE 0.003844
K_143 X_NUC_2.L_CORE X_NUC_48.L_CORE 0.003811
K_144 X_NUC_2.L_CORE X_NUC_49.L_CORE 0.003219
K_145 X_NUC_2.L_CORE X_NUC_50.L_CORE 0.003206
K_146 X_NUC_2.L_CORE X_NUC_51.L_CORE 0.003173
K_147 X_NUC_2.L_CORE X_NUC_52.L_CORE 0.003206
K_148 X_NUC_2.L_CORE X_NUC_53.L_CORE 0.003843
K_149 X_NUC_2.L_CORE X_NUC_54.L_CORE 0.003874
K_150 X_NUC_2.L_CORE X_NUC_55.L_CORE 0.003822
K_151 X_NUC_2.L_CORE X_NUC_56.L_CORE 0.003807
K_152 X_NUC_2.L_CORE X_NUC_57.L_CORE 0.003146
K_153 X_NUC_2.L_CORE X_NUC_58.L_CORE 0.003116
K_154 X_NUC_2.L_CORE X_NUC_59.L_CORE 0.003105
K_155 X_NUC_2.L_CORE X_NUC_60.L_CORE 0.003106
K_156 X_NUC_2.L_CORE X_NUC_61.L_CORE 0.003145
K_157 X_NUC_2.L_CORE X_NUC_62.L_CORE 0.003154
K_158 X_NUC_2.L_CORE X_NUC_63.L_CORE 0.003110
K_159 X_NUC_2.L_CORE X_NUC_64.L_CORE 0.003134
K_160 X_NUC_2.L_CORE X_NUC_65.L_CORE 0.003312
K_161 X_NUC_2.L_CORE X_NUC_66.L_CORE 0.003308
K_162 X_NUC_2.L_CORE X_NUC_67.L_CORE 0.003285
K_163 X_NUC_2.L_CORE X_NUC_68.L_CORE 0.003267
K_164 X_NUC_2.L_CORE X_NUC_69.L_CORE 0.002835
K_165 X_NUC_2.L_CORE X_NUC_70.L_CORE 0.002820
K_166 X_NUC_2.L_CORE X_NUC_71.L_CORE 0.002798
K_167 X_NUC_2.L_CORE X_NUC_72.L_CORE 0.002812
K_168 X_NUC_2.L_CORE X_NUC_73.L_CORE 0.003045
K_169 X_NUC_2.L_CORE X_NUC_74.L_CORE 0.003056
K_170 X_NUC_2.L_CORE X_NUC_75.L_CORE 0.003017
K_171 X_NUC_2.L_CORE X_NUC_76.L_CORE 0.003023
K_172 X_NUC_2.L_CORE X_NUC_77.L_CORE 0.002861
K_173 X_NUC_2.L_CORE X_NUC_78.L_CORE 0.002849
K_174 X_NUC_2.L_CORE X_NUC_79.L_CORE 0.002831
K_175 X_NUC_2.L_CORE X_NUC_80.L_CORE 0.002828
K_176 X_NUC_2.L_CORE X_NUC_81.L_CORE 0.002747
K_177 X_NUC_2.L_CORE X_NUC_82.L_CORE 0.002744
K_178 X_NUC_2.L_CORE X_NUC_83.L_CORE 0.002716
K_179 X_NUC_2.L_CORE X_NUC_84.L_CORE 0.002726
K_180 X_NUC_2.L_CORE X_NUC_85.L_CORE 0.029637
K_181 X_NUC_2.L_CORE X_NUC_86.L_CORE 0.005686
K_182 X_NUC_2.L_CORE X_NUC_87.L_CORE 0.005733
K_183 X_NUC_2.L_CORE X_NUC_88.L_CORE 0.005824
K_184 X_NUC_2.L_CORE X_NUC_89.L_CORE 0.003661
K_185 X_NUC_2.L_CORE X_NUC_90.L_CORE 0.004709
K_186 X_NUC_2.L_CORE X_NUC_91.L_CORE 0.003534
K_187 X_NUC_2.L_CORE X_NUC_92.L_CORE 0.003212
K_188 X_NUC_2.L_CORE X_NUC_93.L_CORE 0.003657
K_189 X_NUC_2.L_CORE X_NUC_94.L_CORE 0.002806
K_190 X_NUC_2.L_CORE X_NUC_95.L_CORE 0.003015
K_191 X_NUC_2.L_CORE X_NUC_96.L_CORE 0.002852
K_192 X_NUC_2.L_CORE X_NUC_97.L_CORE 0.002562
K_193 X_NUC_2.L_CORE X_NUC_98.L_CORE 0.002653
K_194 X_NUC_3.L_CORE X_NUC_4.L_CORE 0.207973
K_195 X_NUC_3.L_CORE X_NUC_5.L_CORE 0.007203
K_196 X_NUC_3.L_CORE X_NUC_6.L_CORE 0.006973
K_197 X_NUC_3.L_CORE X_NUC_7.L_CORE 0.007031
K_198 X_NUC_3.L_CORE X_NUC_8.L_CORE 0.007101
K_199 X_NUC_3.L_CORE X_NUC_9.L_CORE 0.007706
K_200 X_NUC_3.L_CORE X_NUC_10.L_CORE 0.007822
K_201 X_NUC_3.L_CORE X_NUC_11.L_CORE 0.007588
K_202 X_NUC_3.L_CORE X_NUC_12.L_CORE 0.007839
K_203 X_NUC_3.L_CORE X_NUC_13.L_CORE 0.008119
K_204 X_NUC_3.L_CORE X_NUC_14.L_CORE 0.007975
K_205 X_NUC_3.L_CORE X_NUC_15.L_CORE 0.008080
K_206 X_NUC_3.L_CORE X_NUC_16.L_CORE 0.007841
K_207 X_NUC_3.L_CORE X_NUC_17.L_CORE 0.004684
K_208 X_NUC_3.L_CORE X_NUC_18.L_CORE 0.004623
K_209 X_NUC_3.L_CORE X_NUC_19.L_CORE 0.004592
K_210 X_NUC_3.L_CORE X_NUC_20.L_CORE 0.004669
K_211 X_NUC_3.L_CORE X_NUC_21.L_CORE 0.006803
K_212 X_NUC_3.L_CORE X_NUC_22.L_CORE 0.006990
K_213 X_NUC_3.L_CORE X_NUC_23.L_CORE 0.006799
K_214 X_NUC_3.L_CORE X_NUC_24.L_CORE 0.006802
K_215 X_NUC_3.L_CORE X_NUC_25.L_CORE 0.004632
K_216 X_NUC_3.L_CORE X_NUC_26.L_CORE 0.004545
K_217 X_NUC_3.L_CORE X_NUC_27.L_CORE 0.004565
K_218 X_NUC_3.L_CORE X_NUC_28.L_CORE 0.004544
K_219 X_NUC_3.L_CORE X_NUC_29.L_CORE 0.004206
K_220 X_NUC_3.L_CORE X_NUC_30.L_CORE 0.004211
K_221 X_NUC_3.L_CORE X_NUC_31.L_CORE 0.004143
K_222 X_NUC_3.L_CORE X_NUC_32.L_CORE 0.004215
K_223 X_NUC_3.L_CORE X_NUC_33.L_CORE 0.005260
K_224 X_NUC_3.L_CORE X_NUC_34.L_CORE 0.005286
K_225 X_NUC_3.L_CORE X_NUC_35.L_CORE 0.005249
K_226 X_NUC_3.L_CORE X_NUC_36.L_CORE 0.005163
K_227 X_NUC_3.L_CORE X_NUC_37.L_CORE 0.003585
K_228 X_NUC_3.L_CORE X_NUC_38.L_CORE 0.003540
K_229 X_NUC_3.L_CORE X_NUC_39.L_CORE 0.003527
K_230 X_NUC_3.L_CORE X_NUC_40.L_CORE 0.003550
K_231 X_NUC_3.L_CORE X_NUC_41.L_CORE 0.004160
K_232 X_NUC_3.L_CORE X_NUC_42.L_CORE 0.004206
K_233 X_NUC_3.L_CORE X_NUC_43.L_CORE 0.004123
K_234 X_NUC_3.L_CORE X_NUC_44.L_CORE 0.004158
K_235 X_NUC_3.L_CORE X_NUC_45.L_CORE 0.003885
K_236 X_NUC_3.L_CORE X_NUC_46.L_CORE 0.003851
K_237 X_NUC_3.L_CORE X_NUC_47.L_CORE 0.003848
K_238 X_NUC_3.L_CORE X_NUC_48.L_CORE 0.003814
K_239 X_NUC_3.L_CORE X_NUC_49.L_CORE 0.003254
K_240 X_NUC_3.L_CORE X_NUC_50.L_CORE 0.003240
K_241 X_NUC_3.L_CORE X_NUC_51.L_CORE 0.003206
K_242 X_NUC_3.L_CORE X_NUC_52.L_CORE 0.003240
K_243 X_NUC_3.L_CORE X_NUC_53.L_CORE 0.003895
K_244 X_NUC_3.L_CORE X_NUC_54.L_CORE 0.003926
K_245 X_NUC_3.L_CORE X_NUC_55.L_CORE 0.003874
K_246 X_NUC_3.L_CORE X_NUC_56.L_CORE 0.003858
K_247 X_NUC_3.L_CORE X_NUC_57.L_CORE 0.003157
K_248 X_NUC_3.L_CORE X_NUC_58.L_CORE 0.003127
K_249 X_NUC_3.L_CORE X_NUC_59.L_CORE 0.003116
K_250 X_NUC_3.L_CORE X_NUC_60.L_CORE 0.003117
K_251 X_NUC_3.L_CORE X_NUC_61.L_CORE 0.003191
K_252 X_NUC_3.L_CORE X_NUC_62.L_CORE 0.003200
K_253 X_NUC_3.L_CORE X_NUC_63.L_CORE 0.003154
K_254 X_NUC_3.L_CORE X_NUC_64.L_CORE 0.003180
K_255 X_NUC_3.L_CORE X_NUC_65.L_CORE 0.003335
K_256 X_NUC_3.L_CORE X_NUC_66.L_CORE 0.003330
K_257 X_NUC_3.L_CORE X_NUC_67.L_CORE 0.003308
K_258 X_NUC_3.L_CORE X_NUC_68.L_CORE 0.003289
K_259 X_NUC_3.L_CORE X_NUC_69.L_CORE 0.002858
K_260 X_NUC_3.L_CORE X_NUC_70.L_CORE 0.002842
K_261 X_NUC_3.L_CORE X_NUC_71.L_CORE 0.002820
K_262 X_NUC_3.L_CORE X_NUC_72.L_CORE 0.002834
K_263 X_NUC_3.L_CORE X_NUC_73.L_CORE 0.003084
K_264 X_NUC_3.L_CORE X_NUC_74.L_CORE 0.003095
K_265 X_NUC_3.L_CORE X_NUC_75.L_CORE 0.003056
K_266 X_NUC_3.L_CORE X_NUC_76.L_CORE 0.003061
K_267 X_NUC_3.L_CORE X_NUC_77.L_CORE 0.002881
K_268 X_NUC_3.L_CORE X_NUC_78.L_CORE 0.002868
K_269 X_NUC_3.L_CORE X_NUC_79.L_CORE 0.002849
K_270 X_NUC_3.L_CORE X_NUC_80.L_CORE 0.002846
K_271 X_NUC_3.L_CORE X_NUC_81.L_CORE 0.002775
K_272 X_NUC_3.L_CORE X_NUC_82.L_CORE 0.002772
K_273 X_NUC_3.L_CORE X_NUC_83.L_CORE 0.002744
K_274 X_NUC_3.L_CORE X_NUC_84.L_CORE 0.002753
K_275 X_NUC_3.L_CORE X_NUC_85.L_CORE 0.027714
K_276 X_NUC_3.L_CORE X_NUC_86.L_CORE 0.005635
K_277 X_NUC_3.L_CORE X_NUC_87.L_CORE 0.005866
K_278 X_NUC_3.L_CORE X_NUC_88.L_CORE 0.005771
K_279 X_NUC_3.L_CORE X_NUC_89.L_CORE 0.003683
K_280 X_NUC_3.L_CORE X_NUC_90.L_CORE 0.004798
K_281 X_NUC_3.L_CORE X_NUC_91.L_CORE 0.003527
K_282 X_NUC_3.L_CORE X_NUC_92.L_CORE 0.003256
K_283 X_NUC_3.L_CORE X_NUC_93.L_CORE 0.003682
K_284 X_NUC_3.L_CORE X_NUC_94.L_CORE 0.002819
K_285 X_NUC_3.L_CORE X_NUC_95.L_CORE 0.003057
K_286 X_NUC_3.L_CORE X_NUC_96.L_CORE 0.002864
K_287 X_NUC_3.L_CORE X_NUC_97.L_CORE 0.002586
K_288 X_NUC_3.L_CORE X_NUC_98.L_CORE 0.002678
K_289 X_NUC_4.L_CORE X_NUC_5.L_CORE 0.007125
K_290 X_NUC_4.L_CORE X_NUC_6.L_CORE 0.006903
K_291 X_NUC_4.L_CORE X_NUC_7.L_CORE 0.006955
K_292 X_NUC_4.L_CORE X_NUC_8.L_CORE 0.007031
K_293 X_NUC_4.L_CORE X_NUC_9.L_CORE 0.007462
K_294 X_NUC_4.L_CORE X_NUC_10.L_CORE 0.007568
K_295 X_NUC_4.L_CORE X_NUC_11.L_CORE 0.007351
K_296 X_NUC_4.L_CORE X_NUC_12.L_CORE 0.007588
K_297 X_NUC_4.L_CORE X_NUC_13.L_CORE 0.008378
K_298 X_NUC_4.L_CORE X_NUC_14.L_CORE 0.008220
K_299 X_NUC_4.L_CORE X_NUC_15.L_CORE 0.008328
K_300 X_NUC_4.L_CORE X_NUC_16.L_CORE 0.008080
K_301 X_NUC_4.L_CORE X_NUC_17.L_CORE 0.004605
K_302 X_NUC_4.L_CORE X_NUC_18.L_CORE 0.004547
K_303 X_NUC_4.L_CORE X_NUC_19.L_CORE 0.004517
K_304 X_NUC_4.L_CORE X_NUC_20.L_CORE 0.004592
K_305 X_NUC_4.L_CORE X_NUC_21.L_CORE 0.006796
K_306 X_NUC_4.L_CORE X_NUC_22.L_CORE 0.006982
K_307 X_NUC_4.L_CORE X_NUC_23.L_CORE 0.006789
K_308 X_NUC_4.L_CORE X_NUC_24.L_CORE 0.006799
K_309 X_NUC_4.L_CORE X_NUC_25.L_CORE 0.004654
K_310 X_NUC_4.L_CORE X_NUC_26.L_CORE 0.004566
K_311 X_NUC_4.L_CORE X_NUC_27.L_CORE 0.004585
K_312 X_NUC_4.L_CORE X_NUC_28.L_CORE 0.004565
K_313 X_NUC_4.L_CORE X_NUC_29.L_CORE 0.004134
K_314 X_NUC_4.L_CORE X_NUC_30.L_CORE 0.004139
K_315 X_NUC_4.L_CORE X_NUC_31.L_CORE 0.004073
K_316 X_NUC_4.L_CORE X_NUC_32.L_CORE 0.004143
K_317 X_NUC_4.L_CORE X_NUC_33.L_CORE 0.005349
K_318 X_NUC_4.L_CORE X_NUC_34.L_CORE 0.005376
K_319 X_NUC_4.L_CORE X_NUC_35.L_CORE 0.005335
K_320 X_NUC_4.L_CORE X_NUC_36.L_CORE 0.005249
K_321 X_NUC_4.L_CORE X_NUC_37.L_CORE 0.003561
K_322 X_NUC_4.L_CORE X_NUC_38.L_CORE 0.003517
K_323 X_NUC_4.L_CORE X_NUC_39.L_CORE 0.003504
K_324 X_NUC_4.L_CORE X_NUC_40.L_CORE 0.003527
K_325 X_NUC_4.L_CORE X_NUC_41.L_CORE 0.004125
K_326 X_NUC_4.L_CORE X_NUC_42.L_CORE 0.004170
K_327 X_NUC_4.L_CORE X_NUC_43.L_CORE 0.004089
K_328 X_NUC_4.L_CORE X_NUC_44.L_CORE 0.004123
K_329 X_NUC_4.L_CORE X_NUC_45.L_CORE 0.003920
K_330 X_NUC_4.L_CORE X_NUC_46.L_CORE 0.003885
K_331 X_NUC_4.L_CORE X_NUC_47.L_CORE 0.003881
K_332 X_NUC_4.L_CORE X_NUC_48.L_CORE 0.003848
K_333 X_NUC_4.L_CORE X_NUC_49.L_CORE 0.003219
K_334 X_NUC_4.L_CORE X_NUC_50.L_CORE 0.003205
K_335 X_NUC_4.L_CORE X_NUC_51.L_CORE 0.003172
K_336 X_NUC_4.L_CORE X_NUC_52.L_CORE 0.003206
K_337 X_NUC_4.L_CORE X_NUC_53.L_CORE 0.003911
K_338 X_NUC_4.L_CORE X_NUC_54.L_CORE 0.003943
K_339 X_NUC_4.L_CORE X_NUC_55.L_CORE 0.003888
K_340 X_NUC_4.L_CORE X_NUC_56.L_CORE 0.003874
K_341 X_NUC_4.L_CORE X_NUC_57.L_CORE 0.003156
K_342 X_NUC_4.L_CORE X_NUC_58.L_CORE 0.003125
K_343 X_NUC_4.L_CORE X_NUC_59.L_CORE 0.003114
K_344 X_NUC_4.L_CORE X_NUC_60.L_CORE 0.003116
K_345 X_NUC_4.L_CORE X_NUC_61.L_CORE 0.003165
K_346 X_NUC_4.L_CORE X_NUC_62.L_CORE 0.003174
K_347 X_NUC_4.L_CORE X_NUC_63.L_CORE 0.003129
K_348 X_NUC_4.L_CORE X_NUC_64.L_CORE 0.003154
K_349 X_NUC_4.L_CORE X_NUC_65.L_CORE 0.003355
K_350 X_NUC_4.L_CORE X_NUC_66.L_CORE 0.003350
K_351 X_NUC_4.L_CORE X_NUC_67.L_CORE 0.003327
K_352 X_NUC_4.L_CORE X_NUC_68.L_CORE 0.003308
K_353 X_NUC_4.L_CORE X_NUC_69.L_CORE 0.002843
K_354 X_NUC_4.L_CORE X_NUC_70.L_CORE 0.002828
K_355 X_NUC_4.L_CORE X_NUC_71.L_CORE 0.002805
K_356 X_NUC_4.L_CORE X_NUC_72.L_CORE 0.002820
K_357 X_NUC_4.L_CORE X_NUC_73.L_CORE 0.003078
K_358 X_NUC_4.L_CORE X_NUC_74.L_CORE 0.003089
K_359 X_NUC_4.L_CORE X_NUC_75.L_CORE 0.003050
K_360 X_NUC_4.L_CORE X_NUC_76.L_CORE 0.003056
K_361 X_NUC_4.L_CORE X_NUC_77.L_CORE 0.002883
K_362 X_NUC_4.L_CORE X_NUC_78.L_CORE 0.002871
K_363 X_NUC_4.L_CORE X_NUC_79.L_CORE 0.002852
K_364 X_NUC_4.L_CORE X_NUC_80.L_CORE 0.002849
K_365 X_NUC_4.L_CORE X_NUC_81.L_CORE 0.002765
K_366 X_NUC_4.L_CORE X_NUC_82.L_CORE 0.002762
K_367 X_NUC_4.L_CORE X_NUC_83.L_CORE 0.002734
K_368 X_NUC_4.L_CORE X_NUC_84.L_CORE 0.002744
K_369 X_NUC_4.L_CORE X_NUC_85.L_CORE 0.029592
K_370 X_NUC_4.L_CORE X_NUC_86.L_CORE 0.005596
K_371 X_NUC_4.L_CORE X_NUC_87.L_CORE 0.005730
K_372 X_NUC_4.L_CORE X_NUC_88.L_CORE 0.005910
K_373 X_NUC_4.L_CORE X_NUC_89.L_CORE 0.003635
K_374 X_NUC_4.L_CORE X_NUC_90.L_CORE 0.004801
K_375 X_NUC_4.L_CORE X_NUC_91.L_CORE 0.003542
K_376 X_NUC_4.L_CORE X_NUC_92.L_CORE 0.003216
K_377 X_NUC_4.L_CORE X_NUC_93.L_CORE 0.003719
K_378 X_NUC_4.L_CORE X_NUC_94.L_CORE 0.002806
K_379 X_NUC_4.L_CORE X_NUC_95.L_CORE 0.003043
K_380 X_NUC_4.L_CORE X_NUC_96.L_CORE 0.002876
K_381 X_NUC_4.L_CORE X_NUC_97.L_CORE 0.002572
K_382 X_NUC_4.L_CORE X_NUC_98.L_CORE 0.002678
K_383 X_NUC_5.L_CORE X_NUC_6.L_CORE 0.207973
K_384 X_NUC_5.L_CORE X_NUC_7.L_CORE 0.207973
K_385 X_NUC_5.L_CORE X_NUC_8.L_CORE 0.207973
K_386 X_NUC_5.L_CORE X_NUC_9.L_CORE 0.004997
K_387 X_NUC_5.L_CORE X_NUC_10.L_CORE 0.005111
K_388 X_NUC_5.L_CORE X_NUC_11.L_CORE 0.005022
K_389 X_NUC_5.L_CORE X_NUC_12.L_CORE 0.005067
K_390 X_NUC_5.L_CORE X_NUC_13.L_CORE 0.006122
K_391 X_NUC_5.L_CORE X_NUC_14.L_CORE 0.006206
K_392 X_NUC_5.L_CORE X_NUC_15.L_CORE 0.006214
K_393 X_NUC_5.L_CORE X_NUC_16.L_CORE 0.006058
K_394 X_NUC_5.L_CORE X_NUC_17.L_CORE 0.007650
K_395 X_NUC_5.L_CORE X_NUC_18.L_CORE 0.007662
K_396 X_NUC_5.L_CORE X_NUC_19.L_CORE 0.007453
K_397 X_NUC_5.L_CORE X_NUC_20.L_CORE 0.007702
K_398 X_NUC_5.L_CORE X_NUC_21.L_CORE 0.003777
K_399 X_NUC_5.L_CORE X_NUC_22.L_CORE 0.003843
K_400 X_NUC_5.L_CORE X_NUC_23.L_CORE 0.003802
K_401 X_NUC_5.L_CORE X_NUC_24.L_CORE 0.003791
K_402 X_NUC_5.L_CORE X_NUC_25.L_CORE 0.007383
K_403 X_NUC_5.L_CORE X_NUC_26.L_CORE 0.007278
K_404 X_NUC_5.L_CORE X_NUC_27.L_CORE 0.007295
K_405 X_NUC_5.L_CORE X_NUC_28.L_CORE 0.007134
K_406 X_NUC_5.L_CORE X_NUC_29.L_CORE 0.004094
K_407 X_NUC_5.L_CORE X_NUC_30.L_CORE 0.004143
K_408 X_NUC_5.L_CORE X_NUC_31.L_CORE 0.004067
K_409 X_NUC_5.L_CORE X_NUC_32.L_CORE 0.004121
K_410 X_NUC_5.L_CORE X_NUC_33.L_CORE 0.003720
K_411 X_NUC_5.L_CORE X_NUC_34.L_CORE 0.003763
K_412 X_NUC_5.L_CORE X_NUC_35.L_CORE 0.003740
K_413 X_NUC_5.L_CORE X_NUC_36.L_CORE 0.003699
K_414 X_NUC_5.L_CORE X_NUC_37.L_CORE 0.005822
K_415 X_NUC_5.L_CORE X_NUC_38.L_CORE 0.005751
K_416 X_NUC_5.L_CORE X_NUC_39.L_CORE 0.005666
K_417 X_NUC_5.L_CORE X_NUC_40.L_CORE 0.005725
K_418 X_NUC_5.L_CORE X_NUC_41.L_CORE 0.003167
K_419 X_NUC_5.L_CORE X_NUC_42.L_CORE 0.003208
K_420 X_NUC_5.L_CORE X_NUC_43.L_CORE 0.003166
K_421 X_NUC_5.L_CORE X_NUC_44.L_CORE 0.003175
K_422 X_NUC_5.L_CORE X_NUC_45.L_CORE 0.004139
K_423 X_NUC_5.L_CORE X_NUC_46.L_CORE 0.004141
K_424 X_NUC_5.L_CORE X_NUC_47.L_CORE 0.004126
K_425 X_NUC_5.L_CORE X_NUC_48.L_CORE 0.004071
K_426 X_NUC_5.L_CORE X_NUC_49.L_CORE 0.003825
K_427 X_NUC_5.L_CORE X_NUC_50.L_CORE 0.003837
K_428 X_NUC_5.L_CORE X_NUC_51.L_CORE 0.003772
K_429 X_NUC_5.L_CORE X_NUC_52.L_CORE 0.003817
K_430 X_NUC_5.L_CORE X_NUC_53.L_CORE 0.002976
K_431 X_NUC_5.L_CORE X_NUC_54.L_CORE 0.003007
K_432 X_NUC_5.L_CORE X_NUC_55.L_CORE 0.002978
K_433 X_NUC_5.L_CORE X_NUC_56.L_CORE 0.002966
K_434 X_NUC_5.L_CORE X_NUC_57.L_CORE 0.004146
K_435 X_NUC_5.L_CORE X_NUC_58.L_CORE 0.004120
K_436 X_NUC_5.L_CORE X_NUC_59.L_CORE 0.004084
K_437 X_NUC_5.L_CORE X_NUC_60.L_CORE 0.004074
K_438 X_NUC_5.L_CORE X_NUC_61.L_CORE 0.002979
K_439 X_NUC_5.L_CORE X_NUC_62.L_CORE 0.003003
K_440 X_NUC_5.L_CORE X_NUC_63.L_CORE 0.002961
K_441 X_NUC_5.L_CORE X_NUC_64.L_CORE 0.002977
K_442 X_NUC_5.L_CORE X_NUC_65.L_CORE 0.003096
K_443 X_NUC_5.L_CORE X_NUC_66.L_CORE 0.003112
K_444 X_NUC_5.L_CORE X_NUC_67.L_CORE 0.003088
K_445 X_NUC_5.L_CORE X_NUC_68.L_CORE 0.003067
K_446 X_NUC_5.L_CORE X_NUC_69.L_CORE 0.003404
K_447 X_NUC_5.L_CORE X_NUC_70.L_CORE 0.003402
K_448 X_NUC_5.L_CORE X_NUC_71.L_CORE 0.003358
K_449 X_NUC_5.L_CORE X_NUC_72.L_CORE 0.003374
K_450 X_NUC_5.L_CORE X_NUC_73.L_CORE 0.002730
K_451 X_NUC_5.L_CORE X_NUC_74.L_CORE 0.002751
K_452 X_NUC_5.L_CORE X_NUC_75.L_CORE 0.002720
K_453 X_NUC_5.L_CORE X_NUC_76.L_CORE 0.002720
K_454 X_NUC_5.L_CORE X_NUC_77.L_CORE 0.003094
K_455 X_NUC_5.L_CORE X_NUC_78.L_CORE 0.003097
K_456 X_NUC_5.L_CORE X_NUC_79.L_CORE 0.003069
K_457 X_NUC_5.L_CORE X_NUC_80.L_CORE 0.003059
K_458 X_NUC_5.L_CORE X_NUC_81.L_CORE 0.002849
K_459 X_NUC_5.L_CORE X_NUC_82.L_CORE 0.002860
K_460 X_NUC_5.L_CORE X_NUC_83.L_CORE 0.002826
K_461 X_NUC_5.L_CORE X_NUC_84.L_CORE 0.002832
K_462 X_NUC_5.L_CORE X_NUC_85.L_CORE 0.006056
K_463 X_NUC_5.L_CORE X_NUC_86.L_CORE 0.024159
K_464 X_NUC_5.L_CORE X_NUC_87.L_CORE 0.004143
K_465 X_NUC_5.L_CORE X_NUC_88.L_CORE 0.004838
K_466 X_NUC_5.L_CORE X_NUC_89.L_CORE 0.005511
K_467 X_NUC_5.L_CORE X_NUC_90.L_CORE 0.003112
K_468 X_NUC_5.L_CORE X_NUC_91.L_CORE 0.004898
K_469 X_NUC_5.L_CORE X_NUC_92.L_CORE 0.003246
K_470 X_NUC_5.L_CORE X_NUC_93.L_CORE 0.002984
K_471 X_NUC_5.L_CORE X_NUC_94.L_CORE 0.003794
K_472 X_NUC_5.L_CORE X_NUC_95.L_CORE 0.002621
K_473 X_NUC_5.L_CORE X_NUC_96.L_CORE 0.003003
K_474 X_NUC_5.L_CORE X_NUC_97.L_CORE 0.002816
K_475 X_NUC_5.L_CORE X_NUC_98.L_CORE 0.002533
K_476 X_NUC_6.L_CORE X_NUC_7.L_CORE 0.207973
K_477 X_NUC_6.L_CORE X_NUC_8.L_CORE 0.207973
K_478 X_NUC_6.L_CORE X_NUC_9.L_CORE 0.004888
K_479 X_NUC_6.L_CORE X_NUC_10.L_CORE 0.004997
K_480 X_NUC_6.L_CORE X_NUC_11.L_CORE 0.004913
K_481 X_NUC_6.L_CORE X_NUC_12.L_CORE 0.004955
K_482 X_NUC_6.L_CORE X_NUC_13.L_CORE 0.006037
K_483 X_NUC_6.L_CORE X_NUC_14.L_CORE 0.006122
K_484 X_NUC_6.L_CORE X_NUC_15.L_CORE 0.006127
K_485 X_NUC_6.L_CORE X_NUC_16.L_CORE 0.005978
K_486 X_NUC_6.L_CORE X_NUC_17.L_CORE 0.007627
K_487 X_NUC_6.L_CORE X_NUC_18.L_CORE 0.007650
K_488 X_NUC_6.L_CORE X_NUC_19.L_CORE 0.007436
K_489 X_NUC_6.L_CORE X_NUC_20.L_CORE 0.007684
K_490 X_NUC_6.L_CORE X_NUC_21.L_CORE 0.003713
K_491 X_NUC_6.L_CORE X_NUC_22.L_CORE 0.003777
K_492 X_NUC_6.L_CORE X_NUC_23.L_CORE 0.003737
K_493 X_NUC_6.L_CORE X_NUC_24.L_CORE 0.003727
K_494 X_NUC_6.L_CORE X_NUC_25.L_CORE 0.007482
K_495 X_NUC_6.L_CORE X_NUC_26.L_CORE 0.007383
K_496 X_NUC_6.L_CORE X_NUC_27.L_CORE 0.007395
K_497 X_NUC_6.L_CORE X_NUC_28.L_CORE 0.007228
K_498 X_NUC_6.L_CORE X_NUC_29.L_CORE 0.004046
K_499 X_NUC_6.L_CORE X_NUC_30.L_CORE 0.004094
K_500 X_NUC_6.L_CORE X_NUC_31.L_CORE 0.004020
K_501 X_NUC_6.L_CORE X_NUC_32.L_CORE 0.004072
K_502 X_NUC_6.L_CORE X_NUC_33.L_CORE 0.003678
K_503 X_NUC_6.L_CORE X_NUC_34.L_CORE 0.003720
K_504 X_NUC_6.L_CORE X_NUC_35.L_CORE 0.003698
K_505 X_NUC_6.L_CORE X_NUC_36.L_CORE 0.003658
K_506 X_NUC_6.L_CORE X_NUC_37.L_CORE 0.005892
K_507 X_NUC_6.L_CORE X_NUC_38.L_CORE 0.005822
K_508 X_NUC_6.L_CORE X_NUC_39.L_CORE 0.005732
K_509 X_NUC_6.L_CORE X_NUC_40.L_CORE 0.005793
K_510 X_NUC_6.L_CORE X_NUC_41.L_CORE 0.003127
K_511 X_NUC_6.L_CORE X_NUC_42.L_CORE 0.003167
K_512 X_NUC_6.L_CORE X_NUC_43.L_CORE 0.003126
K_513 X_NUC_6.L_CORE X_NUC_44.L_CORE 0.003134
K_514 X_NUC_6.L_CORE X_NUC_45.L_CORE 0.004135
K_515 X_NUC_6.L_CORE X_NUC_46.L_CORE 0.004139
K_516 X_NUC_6.L_CORE X_NUC_47.L_CORE 0.004123
K_517 X_NUC_6.L_CORE X_NUC_48.L_CORE 0.004068
K_518 X_NUC_6.L_CORE X_NUC_49.L_CORE 0.003811
K_519 X_NUC_6.L_CORE X_NUC_50.L_CORE 0.003825
K_520 X_NUC_6.L_CORE X_NUC_51.L_CORE 0.003760
K_521 X_NUC_6.L_CORE X_NUC_52.L_CORE 0.003804
K_522 X_NUC_6.L_CORE X_NUC_53.L_CORE 0.002945
K_523 X_NUC_6.L_CORE X_NUC_54.L_CORE 0.002976
K_524 X_NUC_6.L_CORE X_NUC_55.L_CORE 0.002948
K_525 X_NUC_6.L_CORE X_NUC_56.L_CORE 0.002936
K_526 X_NUC_6.L_CORE X_NUC_57.L_CORE 0.004170
K_527 X_NUC_6.L_CORE X_NUC_58.L_CORE 0.004146
K_528 X_NUC_6.L_CORE X_NUC_59.L_CORE 0.004109
K_529 X_NUC_6.L_CORE X_NUC_60.L_CORE 0.004097
K_530 X_NUC_6.L_CORE X_NUC_61.L_CORE 0.002954
K_531 X_NUC_6.L_CORE X_NUC_62.L_CORE 0.002979
K_532 X_NUC_6.L_CORE X_NUC_63.L_CORE 0.002937
K_533 X_NUC_6.L_CORE X_NUC_64.L_CORE 0.002952
K_534 X_NUC_6.L_CORE X_NUC_65.L_CORE 0.003081
K_535 X_NUC_6.L_CORE X_NUC_66.L_CORE 0.003096
K_536 X_NUC_6.L_CORE X_NUC_67.L_CORE 0.003073
K_537 X_NUC_6.L_CORE X_NUC_68.L_CORE 0.003052
K_538 X_NUC_6.L_CORE X_NUC_69.L_CORE 0.003405
K_539 X_NUC_6.L_CORE X_NUC_70.L_CORE 0.003404
K_540 X_NUC_6.L_CORE X_NUC_71.L_CORE 0.003359
K_541 X_NUC_6.L_CORE X_NUC_72.L_CORE 0.003375
K_542 X_NUC_6.L_CORE X_NUC_73.L_CORE 0.002709
K_543 X_NUC_6.L_CORE X_NUC_74.L_CORE 0.002730
K_544 X_NUC_6.L_CORE X_NUC_75.L_CORE 0.002700
K_545 X_NUC_6.L_CORE X_NUC_76.L_CORE 0.002699
K_546 X_NUC_6.L_CORE X_NUC_77.L_CORE 0.003090
K_547 X_NUC_6.L_CORE X_NUC_78.L_CORE 0.003094
K_548 X_NUC_6.L_CORE X_NUC_79.L_CORE 0.003065
K_549 X_NUC_6.L_CORE X_NUC_80.L_CORE 0.003056
K_550 X_NUC_6.L_CORE X_NUC_81.L_CORE 0.002838
K_551 X_NUC_6.L_CORE X_NUC_82.L_CORE 0.002849
K_552 X_NUC_6.L_CORE X_NUC_83.L_CORE 0.002815
K_553 X_NUC_6.L_CORE X_NUC_84.L_CORE 0.002821
K_554 X_NUC_6.L_CORE X_NUC_85.L_CORE 0.005901
K_555 X_NUC_6.L_CORE X_NUC_86.L_CORE 0.027230
K_556 X_NUC_6.L_CORE X_NUC_87.L_CORE 0.004070
K_557 X_NUC_6.L_CORE X_NUC_88.L_CORE 0.004800
K_558 X_NUC_6.L_CORE X_NUC_89.L_CORE 0.005527
K_559 X_NUC_6.L_CORE X_NUC_90.L_CORE 0.003070
K_560 X_NUC_6.L_CORE X_NUC_91.L_CORE 0.004951
K_561 X_NUC_6.L_CORE X_NUC_92.L_CORE 0.003220
K_562 X_NUC_6.L_CORE X_NUC_93.L_CORE 0.002961
K_563 X_NUC_6.L_CORE X_NUC_94.L_CORE 0.003818
K_564 X_NUC_6.L_CORE X_NUC_95.L_CORE 0.002598
K_565 X_NUC_6.L_CORE X_NUC_96.L_CORE 0.003001
K_566 X_NUC_6.L_CORE X_NUC_97.L_CORE 0.002810
K_567 X_NUC_6.L_CORE X_NUC_98.L_CORE 0.002520
K_568 X_NUC_7.L_CORE X_NUC_8.L_CORE 0.207973
K_569 X_NUC_7.L_CORE X_NUC_9.L_CORE 0.004969
K_570 X_NUC_7.L_CORE X_NUC_10.L_CORE 0.005083
K_571 X_NUC_7.L_CORE X_NUC_11.L_CORE 0.004997
K_572 X_NUC_7.L_CORE X_NUC_12.L_CORE 0.005039
K_573 X_NUC_7.L_CORE X_NUC_13.L_CORE 0.006030
K_574 X_NUC_7.L_CORE X_NUC_14.L_CORE 0.006112
K_575 X_NUC_7.L_CORE X_NUC_15.L_CORE 0.006122
K_576 X_NUC_7.L_CORE X_NUC_16.L_CORE 0.005971
K_577 X_NUC_7.L_CORE X_NUC_17.L_CORE 0.007852
K_578 X_NUC_7.L_CORE X_NUC_18.L_CORE 0.007871
K_579 X_NUC_7.L_CORE X_NUC_19.L_CORE 0.007650
K_580 X_NUC_7.L_CORE X_NUC_20.L_CORE 0.007915