* Applied Vacuum Engineering (AVE) - SPICE Netlist
* Element: Tin-119 (Z=50, A=119)
* Auto-generated topological mutual impedance array
* Nodes: 119



* -----------------------------------------------------------------
* NUCLEON (Baseline 6^3_2 Topological Defect)
* -----------------------------------------------------------------
.SUBCKT NUCLEON IN OUT
L_CORE IN OUT 1uH
C_CORE IN OUT 1pF
.ENDS NUCLEON



* -----------------------------------------------------------------
* MACROSCOPIC TOPOLOGY (Nucleon Array)
* -----------------------------------------------------------------
V_STIM NODE_1 0 AC 1 PULSE(0 100k 10n 1n 1n 50n 100n)

X_NUC_1 NODE_1 0 NUCLEON
X_NUC_2 NODE_2 0 NUCLEON
X_NUC_3 NODE_3 0 NUCLEON
X_NUC_4 NODE_4 0 NUCLEON
X_NUC_5 NODE_5 0 NUCLEON
X_NUC_6 NODE_6 0 NUCLEON
X_NUC_7 NODE_7 0 NUCLEON
X_NUC_8 NODE_8 0 NUCLEON
X_NUC_9 NODE_9 0 NUCLEON
X_NUC_10 NODE_10 0 NUCLEON
X_NUC_11 NODE_11 0 NUCLEON
X_NUC_12 NODE_12 0 NUCLEON
X_NUC_13 NODE_13 0 NUCLEON
X_NUC_14 NODE_14 0 NUCLEON
X_NUC_15 NODE_15 0 NUCLEON
X_NUC_16 NODE_16 0 NUCLEON
X_NUC_17 NODE_17 0 NUCLEON
X_NUC_18 NODE_18 0 NUCLEON
X_NUC_19 NODE_19 0 NUCLEON
X_NUC_20 NODE_20 0 NUCLEON
X_NUC_21 NODE_21 0 NUCLEON
X_NUC_22 NODE_22 0 NUCLEON
X_NUC_23 NODE_23 0 NUCLEON
X_NUC_24 NODE_24 0 NUCLEON
X_NUC_25 NODE_25 0 NUCLEON
X_NUC_26 NODE_26 0 NUCLEON
X_NUC_27 NODE_27 0 NUCLEON
X_NUC_28 NODE_28 0 NUCLEON
X_NUC_29 NODE_29 0 NUCLEON
X_NUC_30 NODE_30 0 NUCLEON
X_NUC_31 NODE_31 0 NUCLEON
X_NUC_32 NODE_32 0 NUCLEON
X_NUC_33 NODE_33 0 NUCLEON
X_NUC_34 NODE_34 0 NUCLEON
X_NUC_35 NODE_35 0 NUCLEON
X_NUC_36 NODE_36 0 NUCLEON
X_NUC_37 NODE_37 0 NUCLEON
X_NUC_38 NODE_38 0 NUCLEON
X_NUC_39 NODE_39 0 NUCLEON
X_NUC_40 NODE_40 0 NUCLEON
X_NUC_41 NODE_41 0 NUCLEON
X_NUC_42 NODE_42 0 NUCLEON
X_NUC_43 NODE_43 0 NUCLEON
X_NUC_44 NODE_44 0 NUCLEON
X_NUC_45 NODE_45 0 NUCLEON
X_NUC_46 NODE_46 0 NUCLEON
X_NUC_47 NODE_47 0 NUCLEON
X_NUC_48 NODE_48 0 NUCLEON
X_NUC_49 NODE_49 0 NUCLEON
X_NUC_50 NODE_50 0 NUCLEON
X_NUC_51 NODE_51 0 NUCLEON
X_NUC_52 NODE_52 0 NUCLEON
X_NUC_53 NODE_53 0 NUCLEON
X_NUC_54 NODE_54 0 NUCLEON
X_NUC_55 NODE_55 0 NUCLEON
X_NUC_56 NODE_56 0 NUCLEON
X_NUC_57 NODE_57 0 NUCLEON
X_NUC_58 NODE_58 0 NUCLEON
X_NUC_59 NODE_59 0 NUCLEON
X_NUC_60 NODE_60 0 NUCLEON
X_NUC_61 NODE_61 0 NUCLEON
X_NUC_62 NODE_62 0 NUCLEON
X_NUC_63 NODE_63 0 NUCLEON
X_NUC_64 NODE_64 0 NUCLEON
X_NUC_65 NODE_65 0 NUCLEON
X_NUC_66 NODE_66 0 NUCLEON
X_NUC_67 NODE_67 0 NUCLEON
X_NUC_68 NODE_68 0 NUCLEON
X_NUC_69 NODE_69 0 NUCLEON
X_NUC_70 NODE_70 0 NUCLEON
X_NUC_71 NODE_71 0 NUCLEON
X_NUC_72 NODE_72 0 NUCLEON
X_NUC_73 NODE_73 0 NUCLEON
X_NUC_74 NODE_74 0 NUCLEON
X_NUC_75 NODE_75 0 NUCLEON
X_NUC_76 NODE_76 0 NUCLEON
X_NUC_77 NODE_77 0 NUCLEON
X_NUC_78 NODE_78 0 NUCLEON
X_NUC_79 NODE_79 0 NUCLEON
X_NUC_80 NODE_80 0 NUCLEON
X_NUC_81 NODE_81 0 NUCLEON
X_NUC_82 NODE_82 0 NUCLEON
X_NUC_83 NODE_83 0 NUCLEON
X_NUC_84 NODE_84 0 NUCLEON
X_NUC_85 NODE_85 0 NUCLEON
X_NUC_86 NODE_86 0 NUCLEON
X_NUC_87 NODE_87 0 NUCLEON
X_NUC_88 NODE_88 0 NUCLEON
X_NUC_89 NODE_89 0 NUCLEON
X_NUC_90 NODE_90 0 NUCLEON
X_NUC_91 NODE_91 0 NUCLEON
X_NUC_92 NODE_92 0 NUCLEON
X_NUC_93 NODE_93 0 NUCLEON
X_NUC_94 NODE_94 0 NUCLEON
X_NUC_95 NODE_95 0 NUCLEON
X_NUC_96 NODE_96 0 NUCLEON
X_NUC_97 NODE_97 0 NUCLEON
X_NUC_98 NODE_98 0 NUCLEON
X_NUC_99 NODE_99 0 NUCLEON
X_NUC_100 NODE_100 0 NUCLEON
X_NUC_101 NODE_101 0 NUCLEON
X_NUC_102 NODE_102 0 NUCLEON
X_NUC_103 NODE_103 0 NUCLEON
X_NUC_104 NODE_104 0 NUCLEON
X_NUC_105 NODE_105 0 NUCLEON
X_NUC_106 NODE_106 0 NUCLEON
X_NUC_107 NODE_107 0 NUCLEON
X_NUC_108 NODE_108 0 NUCLEON
X_NUC_109 NODE_109 0 NUCLEON
X_NUC_110 NODE_110 0 NUCLEON
X_NUC_111 NODE_111 0 NUCLEON
X_NUC_112 NODE_112 0 NUCLEON
X_NUC_113 NODE_113 0 NUCLEON
X_NUC_114 NODE_114 0 NUCLEON
X_NUC_115 NODE_115 0 NUCLEON
X_NUC_116 NODE_116 0 NUCLEON
X_NUC_117 NODE_117 0 NUCLEON
X_NUC_118 NODE_118 0 NUCLEON
X_NUC_119 NODE_119 0 NUCLEON


* -----------------------------------------------------------------
* SPATIAL MUTUAL INDUCTANCE (K-FACTORS)
* -----------------------------------------------------------------
K_1 X_NUC_1.L_CORE X_NUC_2.L_CORE 0.207973
K_2 X_NUC_1.L_CORE X_NUC_3.L_CORE 0.207973
K_3 X_NUC_1.L_CORE X_NUC_4.L_CORE 0.207973
K_4 X_NUC_1.L_CORE X_NUC_5.L_CORE 0.006455
K_5 X_NUC_1.L_CORE X_NUC_6.L_CORE 0.006270
K_6 X_NUC_1.L_CORE X_NUC_7.L_CORE 0.006315
K_7 X_NUC_1.L_CORE X_NUC_8.L_CORE 0.006373
K_8 X_NUC_1.L_CORE X_NUC_9.L_CORE 0.006968
K_9 X_NUC_1.L_CORE X_NUC_10.L_CORE 0.007059
K_10 X_NUC_1.L_CORE X_NUC_11.L_CORE 0.006869
K_11 X_NUC_1.L_CORE X_NUC_12.L_CORE 0.007076
K_12 X_NUC_1.L_CORE X_NUC_13.L_CORE 0.007441
K_13 X_NUC_1.L_CORE X_NUC_14.L_CORE 0.007315
K_14 X_NUC_1.L_CORE X_NUC_15.L_CORE 0.007407
K_15 X_NUC_1.L_CORE X_NUC_16.L_CORE 0.007207
K_16 X_NUC_1.L_CORE X_NUC_17.L_CORE 0.004202
K_17 X_NUC_1.L_CORE X_NUC_18.L_CORE 0.004153
K_18 X_NUC_1.L_CORE X_NUC_19.L_CORE 0.004129
K_19 X_NUC_1.L_CORE X_NUC_20.L_CORE 0.004191
K_20 X_NUC_1.L_CORE X_NUC_21.L_CORE 0.006290
K_21 X_NUC_1.L_CORE X_NUC_22.L_CORE 0.006453
K_22 X_NUC_1.L_CORE X_NUC_23.L_CORE 0.006291
K_23 X_NUC_1.L_CORE X_NUC_24.L_CORE 0.006296
K_24 X_NUC_1.L_CORE X_NUC_25.L_CORE 0.004183
K_25 X_NUC_1.L_CORE X_NUC_26.L_CORE 0.004111
K_26 X_NUC_1.L_CORE X_NUC_27.L_CORE 0.004130
K_27 X_NUC_1.L_CORE X_NUC_28.L_CORE 0.004112
K_28 X_NUC_1.L_CORE X_NUC_29.L_CORE 0.003791
K_29 X_NUC_1.L_CORE X_NUC_30.L_CORE 0.003795
K_30 X_NUC_1.L_CORE X_NUC_31.L_CORE 0.003740
K_31 X_NUC_1.L_CORE X_NUC_32.L_CORE 0.003800
K_32 X_NUC_1.L_CORE X_NUC_33.L_CORE 0.004877
K_33 X_NUC_1.L_CORE X_NUC_34.L_CORE 0.004900
K_34 X_NUC_1.L_CORE X_NUC_35.L_CORE 0.004873
K_35 X_NUC_1.L_CORE X_NUC_36.L_CORE 0.004795
K_36 X_NUC_1.L_CORE X_NUC_37.L_CORE 0.003215
K_37 X_NUC_1.L_CORE X_NUC_38.L_CORE 0.003177
K_38 X_NUC_1.L_CORE X_NUC_39.L_CORE 0.003169
K_39 X_NUC_1.L_CORE X_NUC_40.L_CORE 0.003188
K_40 X_NUC_1.L_CORE X_NUC_41.L_CORE 0.003804
K_41 X_NUC_1.L_CORE X_NUC_42.L_CORE 0.003846
K_42 X_NUC_1.L_CORE X_NUC_43.L_CORE 0.003777
K_43 X_NUC_1.L_CORE X_NUC_44.L_CORE 0.003807
K_44 X_NUC_1.L_CORE X_NUC_45.L_CORE 0.003545
K_45 X_NUC_1.L_CORE X_NUC_46.L_CORE 0.003514
K_46 X_NUC_1.L_CORE X_NUC_47.L_CORE 0.003516
K_47 X_NUC_1.L_CORE X_NUC_48.L_CORE 0.003486
K_48 X_NUC_1.L_CORE X_NUC_49.L_CORE 0.002914
K_49 X_NUC_1.L_CORE X_NUC_50.L_CORE 0.002902
K_50 X_NUC_1.L_CORE X_NUC_51.L_CORE 0.002876
K_51 X_NUC_1.L_CORE X_NUC_52.L_CORE 0.002906
K_52 X_NUC_1.L_CORE X_NUC_53.L_CORE 0.003622
K_53 X_NUC_1.L_CORE X_NUC_54.L_CORE 0.003654
K_54 X_NUC_1.L_CORE X_NUC_55.L_CORE 0.003610
K_55 X_NUC_1.L_CORE X_NUC_56.L_CORE 0.003593
K_56 X_NUC_1.L_CORE X_NUC_57.L_CORE 0.002835
K_57 X_NUC_1.L_CORE X_NUC_58.L_CORE 0.002808
K_58 X_NUC_1.L_CORE X_NUC_59.L_CORE 0.002802
K_59 X_NUC_1.L_CORE X_NUC_60.L_CORE 0.002803
K_60 X_NUC_1.L_CORE X_NUC_61.L_CORE 0.002888
K_61 X_NUC_1.L_CORE X_NUC_62.L_CORE 0.002897
K_62 X_NUC_1.L_CORE X_NUC_63.L_CORE 0.002859
K_63 X_NUC_1.L_CORE X_NUC_64.L_CORE 0.002883
K_64 X_NUC_1.L_CORE X_NUC_65.L_CORE 0.003091
K_65 X_NUC_1.L_CORE X_NUC_66.L_CORE 0.003087
K_66 X_NUC_1.L_CORE X_NUC_67.L_CORE 0.003073
K_67 X_NUC_1.L_CORE X_NUC_68.L_CORE 0.003050
K_68 X_NUC_1.L_CORE X_NUC_69.L_CORE 0.002536
K_69 X_NUC_1.L_CORE X_NUC_70.L_CORE 0.002521
K_70 X_NUC_1.L_CORE X_NUC_71.L_CORE 0.002506
K_71 X_NUC_1.L_CORE X_NUC_72.L_CORE 0.002519
K_72 X_NUC_1.L_CORE X_NUC_73.L_CORE 0.002864
K_73 X_NUC_1.L_CORE X_NUC_74.L_CORE 0.002880
K_74 X_NUC_1.L_CORE X_NUC_75.L_CORE 0.002844
K_75 X_NUC_1.L_CORE X_NUC_76.L_CORE 0.002849
K_76 X_NUC_1.L_CORE X_NUC_77.L_CORE 0.002611
K_77 X_NUC_1.L_CORE X_NUC_78.L_CORE 0.002595
K_78 X_NUC_1.L_CORE X_NUC_79.L_CORE 0.002586
K_79 X_NUC_1.L_CORE X_NUC_80.L_CORE 0.002580
K_80 X_NUC_1.L_CORE X_NUC_81.L_CORE 0.002454
K_81 X_NUC_1.L_CORE X_NUC_82.L_CORE 0.002452
K_82 X_NUC_1.L_CORE X_NUC_83.L_CORE 0.002428
K_83 X_NUC_1.L_CORE X_NUC_84.L_CORE 0.002443
K_84 X_NUC_1.L_CORE X_NUC_85.L_CORE 0.002653
K_85 X_NUC_1.L_CORE X_NUC_86.L_CORE 0.002658
K_86 X_NUC_1.L_CORE X_NUC_87.L_CORE 0.002636
K_87 X_NUC_1.L_CORE X_NUC_88.L_CORE 0.002629
K_88 X_NUC_1.L_CORE X_NUC_89.L_CORE 0.002353
K_89 X_NUC_1.L_CORE X_NUC_90.L_CORE 0.002342
K_90 X_NUC_1.L_CORE X_NUC_91.L_CORE 0.002329
K_91 X_NUC_1.L_CORE X_NUC_92.L_CORE 0.002333
K_92 X_NUC_1.L_CORE X_NUC_93.L_CORE 0.002411
K_93 X_NUC_1.L_CORE X_NUC_94.L_CORE 0.002414
K_94 X_NUC_1.L_CORE X_NUC_95.L_CORE 0.002390
K_95 X_NUC_1.L_CORE X_NUC_96.L_CORE 0.002396
K_96 X_NUC_1.L_CORE X_NUC_97.L_CORE 0.002367
K_97 X_NUC_1.L_CORE X_NUC_98.L_CORE 0.002364
K_98 X_NUC_1.L_CORE X_NUC_99.L_CORE 0.002347
K_99 X_NUC_1.L_CORE X_NUC_100.L_CORE 0.002346
K_100 X_NUC_1.L_CORE X_NUC_101.L_CORE 0.033548
K_101 X_NUC_1.L_CORE X_NUC_102.L_CORE 0.005381
K_102 X_NUC_1.L_CORE X_NUC_103.L_CORE 0.005729
K_103 X_NUC_1.L_CORE X_NUC_104.L_CORE 0.005800
K_104 X_NUC_1.L_CORE X_NUC_105.L_CORE 0.003518
K_105 X_NUC_1.L_CORE X_NUC_106.L_CORE 0.004898
K_106 X_NUC_1.L_CORE X_NUC_107.L_CORE 0.003423
K_107 X_NUC_1.L_CORE X_NUC_108.L_CORE 0.003143
K_108 X_NUC_1.L_CORE X_NUC_109.L_CORE 0.003775
K_109 X_NUC_1.L_CORE X_NUC_110.L_CORE 0.002682
K_110 X_NUC_1.L_CORE X_NUC_111.L_CORE 0.003056
K_111 X_NUC_1.L_CORE X_NUC_112.L_CORE 0.002844
K_112 X_NUC_1.L_CORE X_NUC_113.L_CORE 0.002439
K_113 X_NUC_1.L_CORE X_NUC_114.L_CORE 0.002814
K_114 X_NUC_1.L_CORE X_NUC_115.L_CORE 0.002352
K_115 X_NUC_1.L_CORE X_NUC_116.L_CORE 0.002367
K_116 X_NUC_1.L_CORE X_NUC_117.L_CORE 0.002416
K_117 X_NUC_1.L_CORE X_NUC_118.L_CORE 0.002157
K_118 X_NUC_1.L_CORE X_NUC_119.L_CORE 0.002226
K_119 X_NUC_2.L_CORE X_NUC_3.L_CORE 0.207973
K_120 X_NUC_2.L_CORE X_NUC_4.L_CORE 0.207973
K_121 X_NUC_2.L_CORE X_NUC_5.L_CORE 0.006649
K_122 X_NUC_2.L_CORE X_NUC_6.L_CORE 0.006455
K_123 X_NUC_2.L_CORE X_NUC_7.L_CORE 0.006500
K_124 X_NUC_2.L_CORE X_NUC_8.L_CORE 0.006564
K_125 X_NUC_2.L_CORE X_NUC_9.L_CORE 0.006873
K_126 X_NUC_2.L_CORE X_NUC_10.L_CORE 0.006968
K_127 X_NUC_2.L_CORE X_NUC_11.L_CORE 0.006782
K_128 X_NUC_2.L_CORE X_NUC_12.L_CORE 0.006981
K_129 X_NUC_2.L_CORE X_NUC_13.L_CORE 0.007564
K_130 X_NUC_2.L_CORE X_NUC_14.L_CORE 0.007441
K_131 X_NUC_2.L_CORE X_NUC_15.L_CORE 0.007533
K_132 X_NUC_2.L_CORE X_NUC_16.L_CORE 0.007322
K_133 X_NUC_2.L_CORE X_NUC_17.L_CORE 0.004252
K_134 X_NUC_2.L_CORE X_NUC_18.L_CORE 0.004202
K_135 X_NUC_2.L_CORE X_NUC_19.L_CORE 0.004177
K_136 X_NUC_2.L_CORE X_NUC_20.L_CORE 0.004242
K_137 X_NUC_2.L_CORE X_NUC_21.L_CORE 0.006134
K_138 X_NUC_2.L_CORE X_NUC_22.L_CORE 0.006290
K_139 X_NUC_2.L_CORE X_NUC_23.L_CORE 0.006138
K_140 X_NUC_2.L_CORE X_NUC_24.L_CORE 0.006142
K_141 X_NUC_2.L_CORE X_NUC_25.L_CORE 0.004258
K_142 X_NUC_2.L_CORE X_NUC_26.L_CORE 0.004183
K_143 X_NUC_2.L_CORE X_NUC_27.L_CORE 0.004202
K_144 X_NUC_2.L_CORE X_NUC_28.L_CORE 0.004184
K_145 X_NUC_2.L_CORE X_NUC_29.L_CORE 0.003786
K_146 X_NUC_2.L_CORE X_NUC_30.L_CORE 0.003791
K_147 X_NUC_2.L_CORE X_NUC_31.L_CORE 0.003736
K_148 X_NUC_2.L_CORE X_NUC_32.L_CORE 0.003796
K_149 X_NUC_2.L_CORE X_NUC_33.L_CORE 0.004851
K_150 X_NUC_2.L_CORE X_NUC_34.L_CORE 0.004877
K_151 X_NUC_2.L_CORE X_NUC_35.L_CORE 0.004849
K_152 X_NUC_2.L_CORE X_NUC_36.L_CORE 0.004772
K_153 X_NUC_2.L_CORE X_NUC_37.L_CORE 0.003253
K_154 X_NUC_2.L_CORE X_NUC_38.L_CORE 0.003215
K_155 X_NUC_2.L_CORE X_NUC_39.L_CORE 0.003206
K_156 X_NUC_2.L_CORE X_NUC_40.L_CORE 0.003226
K_157 X_NUC_2.L_CORE X_NUC_41.L_CORE 0.003762
K_158 X_NUC_2.L_CORE X_NUC_42.L_CORE 0.003804
K_159 X_NUC_2.L_CORE X_NUC_43.L_CORE 0.003736
K_160 X_NUC_2.L_CORE X_NUC_44.L_CORE 0.003766
K_161 X_NUC_2.L_CORE X_NUC_45.L_CORE 0.003576
K_162 X_NUC_2.L_CORE X_NUC_46.L_CORE 0.003545
K_163 X_NUC_2.L_CORE X_NUC_47.L_CORE 0.003547
K_164 X_NUC_2.L_CORE X_NUC_48.L_CORE 0.003515
K_165 X_NUC_2.L_CORE X_NUC_49.L_CORE 0.002926
K_166 X_NUC_2.L_CORE X_NUC_50.L_CORE 0.002914
K_167 X_NUC_2.L_CORE X_NUC_51.L_CORE 0.002888
K_168 X_NUC_2.L_CORE X_NUC_52.L_CORE 0.002918
K_169 X_NUC_2.L_CORE X_NUC_53.L_CORE 0.003590
K_170 X_NUC_2.L_CORE X_NUC_54.L_CORE 0.003622
K_171 X_NUC_2.L_CORE X_NUC_55.L_CORE 0.003578
K_172 X_NUC_2.L_CORE X_NUC_56.L_CORE 0.003562
K_173 X_NUC_2.L_CORE X_NUC_57.L_CORE 0.002863
K_174 X_NUC_2.L_CORE X_NUC_58.L_CORE 0.002835
K_175 X_NUC_2.L_CORE X_NUC_59.L_CORE 0.002830
K_176 X_NUC_2.L_CORE X_NUC_60.L_CORE 0.002830
K_177 X_NUC_2.L_CORE X_NUC_61.L_CORE 0.002878
K_178 X_NUC_2.L_CORE X_NUC_62.L_CORE 0.002888
K_179 X_NUC_2.L_CORE X_NUC_63.L_CORE 0.002850
K_180 X_NUC_2.L_CORE X_NUC_64.L_CORE 0.002873
K_181 X_NUC_2.L_CORE X_NUC_65.L_CORE 0.003094
K_182 X_NUC_2.L_CORE X_NUC_66.L_CORE 0.003091
K_183 X_NUC_2.L_CORE X_NUC_67.L_CORE 0.003076
K_184 X_NUC_2.L_CORE X_NUC_68.L_CORE 0.003054
K_185 X_NUC_2.L_CORE X_NUC_69.L_CORE 0.002551
K_186 X_NUC_2.L_CORE X_NUC_70.L_CORE 0.002536
K_187 X_NUC_2.L_CORE X_NUC_71.L_CORE 0.002520
K_188 X_NUC_2.L_CORE X_NUC_72.L_CORE 0.002534
K_189 X_NUC_2.L_CORE X_NUC_73.L_CORE 0.002847
K_190 X_NUC_2.L_CORE X_NUC_74.L_CORE 0.002864
K_191 X_NUC_2.L_CORE X_NUC_75.L_CORE 0.002828
K_192 X_NUC_2.L_CORE X_NUC_76.L_CORE 0.002833
K_193 X_NUC_2.L_CORE X_NUC_77.L_CORE 0.002626
K_194 X_NUC_2.L_CORE X_NUC_78.L_CORE 0.002611
K_195 X_NUC_2.L_CORE X_NUC_79.L_CORE 0.002601
K_196 X_NUC_2.L_CORE X_NUC_80.L_CORE 0.002595
K_197 X_NUC_2.L_CORE X_NUC_81.L_CORE 0.002456
K_198 X_NUC_2.L_CORE X_NUC_82.L_CORE 0.002454
K_199 X_NUC_2.L_CORE X_NUC_83.L_CORE 0.002430
K_200 X_NUC_2.L_CORE X_NUC_84.L_CORE 0.002445
K_201 X_NUC_2.L_CORE X_NUC_85.L_CORE 0.002649
K_202 X_NUC_2.L_CORE X_NUC_86.L_CORE 0.002653
K_203 X_NUC_2.L_CORE X_NUC_87.L_CORE 0.002632
K_204 X_NUC_2.L_CORE X_NUC_88.L_CORE 0.002625
K_205 X_NUC_2.L_CORE X_NUC_89.L_CORE 0.002364
K_206 X_NUC_2.L_CORE X_NUC_90.L_CORE 0.002353
K_207 X_NUC_2.L_CORE X_NUC_91.L_CORE 0.002339
K_208 X_NUC_2.L_CORE X_NUC_92.L_CORE 0.002343
K_209 X_NUC_2.L_CORE X_NUC_93.L_CORE 0.002408
K_210 X_NUC_2.L_CORE X_NUC_94.L_CORE 0.002411
K_211 X_NUC_2.L_CORE X_NUC_95.L_CORE 0.002387
K_212 X_NUC_2.L_CORE X_NUC_96.L_CORE 0.002393
K_213 X_NUC_2.L_CORE X_NUC_97.L_CORE 0.002371
K_214 X_NUC_2.L_CORE X_NUC_98.L_CORE 0.002367
K_215 X_NUC_2.L_CORE X_NUC_99.L_CORE 0.002351
K_216 X_NUC_2.L_CORE X_NUC_100.L_CORE 0.002350
K_217 X_NUC_2.L_CORE X_NUC_101.L_CORE 0.031395
K_218 X_NUC_2.L_CORE X_NUC_102.L_CORE 0.005518
K_219 X_NUC_2.L_CORE X_NUC_103.L_CORE 0.005653
K_220 X_NUC_2.L_CORE X_NUC_104.L_CORE 0.005865
K_221 X_NUC_2.L_CORE X_NUC_105.L_CORE 0.003552
K_222 X_NUC_2.L_CORE X_NUC_106.L_CORE 0.004801
K_223 X_NUC_2.L_CORE X_NUC_107.L_CORE 0.003471
K_224 X_NUC_2.L_CORE X_NUC_108.L_CORE 0.003139
K_225 X_NUC_2.L_CORE X_NUC_109.L_CORE 0.003759
K_226 X_NUC_2.L_CORE X_NUC_110.L_CORE 0.002707
K_227 X_NUC_2.L_CORE X_NUC_111.L_CORE 0.003030
K_228 X_NUC_2.L_CORE X_NUC_112.L_CORE 0.002861
K_229 X_NUC_2.L_CORE X_NUC_113.L_CORE 0.002446
K_230 X_NUC_2.L_CORE X_NUC_114.L_CORE 0.002798
K_231 X_NUC_2.L_CORE X_NUC_115.L_CORE 0.002368
K_232 X_NUC_2.L_CORE X_NUC_116.L_CORE 0.002362
K_233 X_NUC_2.L_CORE X_NUC_117.L_CORE 0.002418
K_234 X_NUC_2.L_CORE X_NUC_118.L_CORE 0.002164
K_235 X_NUC_2.L_CORE X_NUC_119.L_CORE 0.002224
K_236 X_NUC_3.L_CORE X_NUC_4.L_CORE 0.207973
K_237 X_NUC_3.L_CORE X_NUC_5.L_CORE 0.006597
K_238 X_NUC_3.L_CORE X_NUC_6.L_CORE 0.006404
K_239 X_NUC_3.L_CORE X_NUC_7.L_CORE 0.006455
K_240 X_NUC_3.L_CORE X_NUC_8.L_CORE 0.006514
K_241 X_NUC_3.L_CORE X_NUC_9.L_CORE 0.007063
K_242 X_NUC_3.L_CORE X_NUC_10.L_CORE 0.007162
K_243 X_NUC_3.L_CORE X_NUC_11.L_CORE 0.006968
K_244 X_NUC_3.L_CORE X_NUC_12.L_CORE 0.007180
K_245 X_NUC_3.L_CORE X_NUC_13.L_CORE 0.007466
K_246 X_NUC_3.L_CORE X_NUC_14.L_CORE 0.007343
K_247 X_NUC_3.L_CORE X_NUC_15.L_CORE 0.007441
K_248 X_NUC_3.L_CORE X_NUC_16.L_CORE 0.007234
K_249 X_NUC_3.L_CORE X_NUC_17.L_CORE 0.004278
K_250 X_NUC_3.L_CORE X_NUC_18.L_CORE 0.004227
K_251 X_NUC_3.L_CORE X_NUC_19.L_CORE 0.004202
K_252 X_NUC_3.L_CORE X_NUC_20.L_CORE 0.004267
K_253 X_NUC_3.L_CORE X_NUC_21.L_CORE 0.006284
K_254 X_NUC_3.L_CORE X_NUC_22.L_CORE 0.006449
K_255 X_NUC_3.L_CORE X_NUC_23.L_CORE 0.006290
K_256 X_NUC_3.L_CORE X_NUC_24.L_CORE 0.006292
K_257 X_NUC_3.L_CORE X_NUC_25.L_CORE 0.004237
K_258 X_NUC_3.L_CORE X_NUC_26.L_CORE 0.004163
K_259 X_NUC_3.L_CORE X_NUC_27.L_CORE 0.004183
K_260 X_NUC_3.L_CORE X_NUC_28.L_CORE 0.004164
K_261 X_NUC_3.L_CORE X_NUC_29.L_CORE 0.003842
K_262 X_NUC_3.L_CORE X_NUC_30.L_CORE 0.003847
K_263 X_NUC_3.L_CORE X_NUC_31.L_CORE 0.003791
K_264 X_NUC_3.L_CORE X_NUC_32.L_CORE 0.003853
K_265 X_NUC_3.L_CORE X_NUC_33.L_CORE 0.004878
K_266 X_NUC_3.L_CORE X_NUC_34.L_CORE 0.004903
K_267 X_NUC_3.L_CORE X_NUC_35.L_CORE 0.004877
K_268 X_NUC_3.L_CORE X_NUC_36.L_CORE 0.004797
K_269 X_NUC_3.L_CORE X_NUC_37.L_CORE 0.003262
K_270 X_NUC_3.L_CORE X_NUC_38.L_CORE 0.003223
K_271 X_NUC_3.L_CORE X_NUC_39.L_CORE 0.003215
K_272 X_NUC_3.L_CORE X_NUC_40.L_CORE 0.003235
K_273 X_NUC_3.L_CORE X_NUC_41.L_CORE 0.003830
K_274 X_NUC_3.L_CORE X_NUC_42.L_CORE 0.003874
K_275 X_NUC_3.L_CORE X_NUC_43.L_CORE 0.003804
K_276 X_NUC_3.L_CORE X_NUC_44.L_CORE 0.003834
K_277 X_NUC_3.L_CORE X_NUC_45.L_CORE 0.003573
K_278 X_NUC_3.L_CORE X_NUC_46.L_CORE 0.003542
K_279 X_NUC_3.L_CORE X_NUC_47.L_CORE 0.003545
K_280 X_NUC_3.L_CORE X_NUC_48.L_CORE 0.003513
K_281 X_NUC_3.L_CORE X_NUC_49.L_CORE 0.002953
K_282 X_NUC_3.L_CORE X_NUC_50.L_CORE 0.002941
K_283 X_NUC_3.L_CORE X_NUC_51.L_CORE 0.002914
K_284 X_NUC_3.L_CORE X_NUC_52.L_CORE 0.002945
K_285 X_NUC_3.L_CORE X_NUC_53.L_CORE 0.003634
K_286 X_NUC_3.L_CORE X_NUC_54.L_CORE 0.003667
K_287 X_NUC_3.L_CORE X_NUC_55.L_CORE 0.003622
K_288 X_NUC_3.L_CORE X_NUC_56.L_CORE 0.003605
K_289 X_NUC_3.L_CORE X_NUC_57.L_CORE 0.002869
K_290 X_NUC_3.L_CORE X_NUC_58.L_CORE 0.002840
K_291 X_NUC_3.L_CORE X_NUC_59.L_CORE 0.002835
K_292 X_NUC_3.L_CORE X_NUC_60.L_CORE 0.002836
K_293 X_NUC_3.L_CORE X_NUC_61.L_CORE 0.002916
K_294 X_NUC_3.L_CORE X_NUC_62.L_CORE 0.002927
K_295 X_NUC_3.L_CORE X_NUC_63.L_CORE 0.002888
K_296 X_NUC_3.L_CORE X_NUC_64.L_CORE 0.002912
K_297 X_NUC_3.L_CORE X_NUC_65.L_CORE 0.003109
K_298 X_NUC_3.L_CORE X_NUC_66.L_CORE 0.003105
K_299 X_NUC_3.L_CORE X_NUC_67.L_CORE 0.003091
K_300 X_NUC_3.L_CORE X_NUC_68.L_CORE 0.003068
K_301 X_NUC_3.L_CORE X_NUC_69.L_CORE 0.002567
K_302 X_NUC_3.L_CORE X_NUC_70.L_CORE 0.002552
K_303 X_NUC_3.L_CORE X_NUC_71.L_CORE 0.002536
K_304 X_NUC_3.L_CORE X_NUC_72.L_CORE 0.002550
K_305 X_NUC_3.L_CORE X_NUC_73.L_CORE 0.002883
K_306 X_NUC_3.L_CORE X_NUC_74.L_CORE 0.002900
K_307 X_NUC_3.L_CORE X_NUC_75.L_CORE 0.002864
K_308 X_NUC_3.L_CORE X_NUC_76.L_CORE 0.002868
K_309 X_NUC_3.L_CORE X_NUC_77.L_CORE 0.002635
K_310 X_NUC_3.L_CORE X_NUC_78.L_CORE 0.002619
K_311 X_NUC_3.L_CORE X_NUC_79.L_CORE 0.002611
K_312 X_NUC_3.L_CORE X_NUC_80.L_CORE 0.002604
K_313 X_NUC_3.L_CORE X_NUC_81.L_CORE 0.002480
K_314 X_NUC_3.L_CORE X_NUC_82.L_CORE 0.002478
K_315 X_NUC_3.L_CORE X_NUC_83.L_CORE 0.002454
K_316 X_NUC_3.L_CORE X_NUC_84.L_CORE 0.002469
K_317 X_NUC_3.L_CORE X_NUC_85.L_CORE 0.002671
K_318 X_NUC_3.L_CORE X_NUC_86.L_CORE 0.002675
K_319 X_NUC_3.L_CORE X_NUC_87.L_CORE 0.002653
K_320 X_NUC_3.L_CORE X_NUC_88.L_CORE 0.002646
K_321 X_NUC_3.L_CORE X_NUC_89.L_CORE 0.002378
K_322 X_NUC_3.L_CORE X_NUC_90.L_CORE 0.002367
K_323 X_NUC_3.L_CORE X_NUC_91.L_CORE 0.002353
K_324 X_NUC_3.L_CORE X_NUC_92.L_CORE 0.002357
K_325 X_NUC_3.L_CORE X_NUC_93.L_CORE 0.002432
K_326 X_NUC_3.L_CORE X_NUC_94.L_CORE 0.002435
K_327 X_NUC_3.L_CORE X_NUC_95.L_CORE 0.002411
K_328 X_NUC_3.L_CORE X_NUC_96.L_CORE 0.002417
K_329 X_NUC_3.L_CORE X_NUC_97.L_CORE 0.002388
K_330 X_NUC_3.L_CORE X_NUC_98.L_CORE 0.002384
K_331 X_NUC_3.L_CORE X_NUC_99.L_CORE 0.002367
K_332 X_NUC_3.L_CORE X_NUC_100.L_CORE 0.002366
K_333 X_NUC_3.L_CORE X_NUC_101.L_CORE 0.028952
K_334 X_NUC_3.L_CORE X_NUC_102.L_CORE 0.005467
K_335 X_NUC_3.L_CORE X_NUC_103.L_CORE 0.005776
K_336 X_NUC_3.L_CORE X_NUC_104.L_CORE 0.005797
K_337 X_NUC_3.L_CORE X_NUC_105.L_CORE 0.003570
K_338 X_NUC_3.L_CORE X_NUC_106.L_CORE 0.004888
K_339 X_NUC_3.L_CORE X_NUC_107.L_CORE 0.003458
K_340 X_NUC_3.L_CORE X_NUC_108.L_CORE 0.003179
K_341 X_NUC_3.L_CORE X_NUC_109.L_CORE 0.003777
K_342 X_NUC_3.L_CORE X_NUC_110.L_CORE 0.002715
K_343 X_NUC_3.L_CORE X_NUC_111.L_CORE 0.003074
K_344 X_NUC_3.L_CORE X_NUC_112.L_CORE 0.002863
K_345 X_NUC_3.L_CORE X_NUC_113.L_CORE 0.002466
K_346 X_NUC_3.L_CORE X_NUC_114.L_CORE 0.002826
K_347 X_NUC_3.L_CORE X_NUC_115.L_CORE 0.002375
K_348 X_NUC_3.L_CORE X_NUC_116.L_CORE 0.002388
K_349 X_NUC_3.L_CORE X_NUC_117.L_CORE 0.002432
K_350 X_NUC_3.L_CORE X_NUC_118.L_CORE 0.002179
K_351 X_NUC_3.L_CORE X_NUC_119.L_CORE 0.002243
K_352 X_NUC_4.L_CORE X_NUC_5.L_CORE 0.006533
K_353 X_NUC_4.L_CORE X_NUC_6.L_CORE 0.006345
K_354 X_NUC_4.L_CORE X_NUC_7.L_CORE 0.006391
K_355 X_NUC_4.L_CORE X_NUC_8.L_CORE 0.006455
K_356 X_NUC_4.L_CORE X_NUC_9.L_CORE 0.006857
K_357 X_NUC_4.L_CORE X_NUC_10.L_CORE 0.006947
K_358 X_NUC_4.L_CORE X_NUC_11.L_CORE 0.006767
K_359 X_NUC_4.L_CORE X_NUC_12.L_CORE 0.006968
K_360 X_NUC_4.L_CORE X_NUC_13.L_CORE 0.007689
K_361 X_NUC_4.L_CORE X_NUC_14.L_CORE 0.007555
K_362 X_NUC_4.L_CORE X_NUC_15.L_CORE 0.007656
K_363 X_NUC_4.L_CORE X_NUC_16.L_CORE 0.007441
K_364 X_NUC_4.L_CORE X_NUC_17.L_CORE 0.004212
K_365 X_NUC_4.L_CORE X_NUC_18.L_CORE 0.004163
K_366 X_NUC_4.L_CORE X_NUC_19.L_CORE 0.004139
K_367 X_NUC_4.L_CORE X_NUC_20.L_CORE 0.004202
K_368 X_NUC_4.L_CORE X_NUC_21.L_CORE 0.006279
K_369 X_NUC_4.L_CORE X_NUC_22.L_CORE 0.006444
K_370 X_NUC_4.L_CORE X_NUC_23.L_CORE 0.006283
K_371 X_NUC_4.L_CORE X_NUC_24.L_CORE 0.006290
K_372 X_NUC_4.L_CORE X_NUC_25.L_CORE 0.004256
K_373 X_NUC_4.L_CORE X_NUC_26.L_CORE 0.004181
K_374 X_NUC_4.L_CORE X_NUC_27.L_CORE 0.004201
K_375 X_NUC_4.L_CORE X_NUC_28.L_CORE 0.004183
K_376 X_NUC_4.L_CORE X_NUC_29.L_CORE 0.003780
K_377 X_NUC_4.L_CORE X_NUC_30.L_CORE 0.003784
K_378 X_NUC_4.L_CORE X_NUC_31.L_CORE 0.003730
K_379 X_NUC_4.L_CORE X_NUC_32.L_CORE 0.003791
K_380 X_NUC_4.L_CORE X_NUC_33.L_CORE 0.004961
K_381 X_NUC_4.L_CORE X_NUC_34.L_CORE 0.004987
K_382 X_NUC_4.L_CORE X_NUC_35.L_CORE 0.004958
K_383 X_NUC_4.L_CORE X_NUC_36.L_CORE 0.004877
K_384 X_NUC_4.L_CORE X_NUC_37.L_CORE 0.003242
K_385 X_NUC_4.L_CORE X_NUC_38.L_CORE 0.003203
K_386 X_NUC_4.L_CORE X_NUC_39.L_CORE 0.003195
K_387 X_NUC_4.L_CORE X_NUC_40.L_CORE 0.003215
K_388 X_NUC_4.L_CORE X_NUC_41.L_CORE 0.003799
K_389 X_NUC_4.L_CORE X_NUC_42.L_CORE 0.003842
K_390 X_NUC_4.L_CORE X_NUC_43.L_CORE 0.003773
K_391 X_NUC_4.L_CORE X_NUC_44.L_CORE 0.003804
K_392 X_NUC_4.L_CORE X_NUC_45.L_CORE 0.003606
K_393 X_NUC_4.L_CORE X_NUC_46.L_CORE 0.003574
K_394 X_NUC_4.L_CORE X_NUC_47.L_CORE 0.003577
K_395 X_NUC_4.L_CORE X_NUC_48.L_CORE 0.003545
K_396 X_NUC_4.L_CORE X_NUC_49.L_CORE 0.002923
K_397 X_NUC_4.L_CORE X_NUC_50.L_CORE 0.002911
K_398 X_NUC_4.L_CORE X_NUC_51.L_CORE 0.002884
K_399 X_NUC_4.L_CORE X_NUC_52.L_CORE 0.002914
K_400 X_NUC_4.L_CORE X_NUC_53.L_CORE 0.003651
K_401 X_NUC_4.L_CORE X_NUC_54.L_CORE 0.003684
K_402 X_NUC_4.L_CORE X_NUC_55.L_CORE 0.003639
K_403 X_NUC_4.L_CORE X_NUC_56.L_CORE 0.003622
K_404 X_NUC_4.L_CORE X_NUC_57.L_CORE 0.002868
K_405 X_NUC_4.L_CORE X_NUC_58.L_CORE 0.002840
K_406 X_NUC_4.L_CORE X_NUC_59.L_CORE 0.002834
K_407 X_NUC_4.L_CORE X_NUC_60.L_CORE 0.002835
K_408 X_NUC_4.L_CORE X_NUC_61.L_CORE 0.002892
K_409 X_NUC_4.L_CORE X_NUC_62.L_CORE 0.002902
K_410 X_NUC_4.L_CORE X_NUC_63.L_CORE 0.002863
K_411 X_NUC_4.L_CORE X_NUC_64.L_CORE 0.002888
K_412 X_NUC_4.L_CORE X_NUC_65.L_CORE 0.003133
K_413 X_NUC_4.L_CORE X_NUC_66.L_CORE 0.003129
K_414 X_NUC_4.L_CORE X_NUC_67.L_CORE 0.003114
K_415 X_NUC_4.L_CORE X_NUC_68.L_CORE 0.003091
K_416 X_NUC_4.L_CORE X_NUC_69.L_CORE 0.002553
K_417 X_NUC_4.L_CORE X_NUC_70.L_CORE 0.002538
K_418 X_NUC_4.L_CORE X_NUC_71.L_CORE 0.002522
K_419 X_NUC_4.L_CORE X_NUC_72.L_CORE 0.002536
K_420 X_NUC_4.L_CORE X_NUC_73.L_CORE 0.002878
K_421 X_NUC_4.L_CORE X_NUC_74.L_CORE 0.002895
K_422 X_NUC_4.L_CORE X_NUC_75.L_CORE 0.002859
K_423 X_NUC_4.L_CORE X_NUC_76.L_CORE 0.002864
K_424 X_NUC_4.L_CORE X_NUC_77.L_CORE 0.002642
K_425 X_NUC_4.L_CORE X_NUC_78.L_CORE 0.002626
K_426 X_NUC_4.L_CORE X_NUC_79.L_CORE 0.002617
K_427 X_NUC_4.L_CORE X_NUC_80.L_CORE 0.002611
K_428 X_NUC_4.L_CORE X_NUC_81.L_CORE 0.002465
K_429 X_NUC_4.L_CORE X_NUC_82.L_CORE 0.002463
K_430 X_NUC_4.L_CORE X_NUC_83.L_CORE 0.002439
K_431 X_NUC_4.L_CORE X_NUC_84.L_CORE 0.002454
K_432 X_NUC_4.L_CORE X_NUC_85.L_CORE 0.002678
K_433 X_NUC_4.L_CORE X_NUC_86.L_CORE 0.002683
K_434 X_NUC_4.L_CORE X_NUC_87.L_CORE 0.002660
K_435 X_NUC_4.L_CORE X_NUC_88.L_CORE 0.002653
K_436 X_NUC_4.L_CORE X_NUC_89.L_CORE 0.002373
K_437 X_NUC_4.L_CORE X_NUC_90.L_CORE 0.002362
K_438 X_NUC_4.L_CORE X_NUC_91.L_CORE 0.002349
K_439 X_NUC_4.L_CORE X_NUC_92.L_CORE 0.002353
K_440 X_NUC_4.L_CORE X_NUC_93.L_CORE 0.002425
K_441 X_NUC_4.L_CORE X_NUC_94.L_CORE 0.002428
K_442 X_NUC_4.L_CORE X_NUC_95.L_CORE 0.002404
K_443 X_NUC_4.L_CORE X_NUC_96.L_CORE 0.002411
K_444 X_NUC_4.L_CORE X_NUC_97.L_CORE 0.002389
K_445 X_NUC_4.L_CORE X_NUC_98.L_CORE 0.002385
K_446 X_NUC_4.L_CORE X_NUC_99.L_CORE 0.002368
K_447 X_NUC_4.L_CORE X_NUC_100.L_CORE 0.002367
K_448 X_NUC_4.L_CORE X_NUC_101.L_CORE 0.030614
K_449 X_NUC_4.L_CORE X_NUC_102.L_CORE 0.005429
K_450 X_NUC_4.L_CORE X_NUC_103.L_CORE 0.005641
K_451 X_NUC_4.L_CORE X_NUC_104.L_CORE 0.005941
K_452 X_NUC_4.L_CORE X_NUC_105.L_CORE 0.003524
K_453 X_NUC_4.L_CORE X_NUC_106.L_CORE 0.004891
K_454 X_NUC_4.L_CORE X_NUC_107.L_CORE 0.003473
K_455 X_NUC_4.L_CORE X_NUC_108.L_CORE 0.003137
K_456 X_NUC_4.L_CORE X_NUC_109.L_CORE 0.003825
K_457 X_NUC_4.L_CORE X_NUC_110.L_CORE 0.002702
K_458 X_NUC_4.L_CORE X_NUC_111.L_CORE 0.003057
K_459 X_NUC_4.L_CORE X_NUC_112.L_CORE 0.002883
K_460 X_NUC_4.L_CORE X_NUC_113.L_CORE 0.002447
K_461 X_NUC_4.L_CORE X_NUC_114.L_CORE 0.002834
K_462 X_NUC_4.L_CORE X_NUC_115.L_CORE 0.002375
K_463 X_NUC_4.L_CORE X_NUC_116.L_CORE 0.002375
K_464 X_NUC_4.L_CORE X_NUC_117.L_CORE 0.002440
K_465 X_NUC_4.L_CORE X_NUC_118.L_CORE 0.002172
K_466 X_NUC_4.L_CORE X_NUC_119.L_CORE 0.002241
K_467 X_NUC_5.L_CORE X_NUC_6.L_CORE 0.207973
K_468 X_NUC_5.L_CORE X_NUC_7.L_CORE 0.207973
K_469 X_NUC_5.L_CORE X_NUC_8.L_CORE 0.207973
K_470 X_NUC_5.L_CORE X_NUC_9.L_CORE 0.004566
K_471 X_NUC_5.L_CORE X_NUC_10.L_CORE 0.004661
K_472 X_NUC_5.L_CORE X_NUC_11.L_CORE 0.004588
K_473 X_NUC_5.L_CORE X_NUC_12.L_CORE 0.004625
K_474 X_NUC_5.L_CORE X_NUC_13.L_CORE 0.005591
K_475 X_NUC_5.L_CORE X_NUC_14.L_CORE 0.005660
K_476 X_NUC_5.L_CORE X_NUC_15.L_CORE 0.005670
K_477 X_NUC_5.L_CORE X_NUC_16.L_CORE 0.005539
K_478 X_NUC_5.L_CORE X_NUC_17.L_CORE 0.007010
K_479 X_NUC_5.L_CORE X_NUC_18.L_CORE 0.007018
K_480 X_NUC_5.L_CORE X_NUC_19.L_CORE 0.006847
K_481 X_NUC_5.L_CORE X_NUC_20.L_CORE 0.007061
K_482 X_NUC_5.L_CORE X_NUC_21.L_CORE 0.003434
K_483 X_NUC_5.L_CORE X_NUC_22.L_CORE 0.003489
K_484 X_NUC_5.L_CORE X_NUC_23.L_CORE 0.003456
K_485 X_NUC_5.L_CORE X_NUC_24.L_CORE 0.003447
K_486 X_NUC_5.L_CORE X_NUC_25.L_CORE 0.006832
K_487 X_NUC_5.L_CORE X_NUC_26.L_CORE 0.006736
K_488 X_NUC_5.L_CORE X_NUC_27.L_CORE 0.006764
K_489 X_NUC_5.L_CORE X_NUC_28.L_CORE 0.006620
K_490 X_NUC_5.L_CORE X_NUC_29.L_CORE 0.003724
K_491 X_NUC_5.L_CORE X_NUC_30.L_CORE 0.003764
K_492 X_NUC_5.L_CORE X_NUC_31.L_CORE 0.003702
K_493 X_NUC_5.L_CORE X_NUC_32.L_CORE 0.003748
K_494 X_NUC_5.L_CORE X_NUC_33.L_CORE 0.003376
K_495 X_NUC_5.L_CORE X_NUC_34.L_CORE 0.003411
K_496 X_NUC_5.L_CORE X_NUC_35.L_CORE 0.003395
K_497 X_NUC_5.L_CORE X_NUC_36.L_CORE 0.003360
K_498 X_NUC_5.L_CORE X_NUC_37.L_CORE 0.005447
K_499 X_NUC_5.L_CORE X_NUC_38.L_CORE 0.005375
K_500 X_NUC_5.L_CORE X_NUC_39.L_CORE 0.005308
K_501 X_NUC_5.L_CORE X_NUC_40.L_CORE 0.005364
K_502 X_NUC_5.L_CORE X_NUC_41.L_CORE 0.002857
K_503 X_NUC_5.L_CORE X_NUC_42.L_CORE 0.002892
K_504 X_NUC_5.L_CORE X_NUC_43.L_CORE 0.002858
K_505 X_NUC_5.L_CORE X_NUC_44.L_CORE 0.002865
K_506 X_NUC_5.L_CORE X_NUC_45.L_CORE 0.003805
K_507 X_NUC_5.L_CORE X_NUC_46.L_CORE 0.003805
K_508 X_NUC_5.L_CORE X_NUC_47.L_CORE 0.003798
K_509 X_NUC_5.L_CORE X_NUC_48.L_CORE 0.003747
K_510 X_NUC_5.L_CORE X_NUC_49.L_CORE 0.003507
K_511 X_NUC_5.L_CORE X_NUC_50.L_CORE 0.003516
K_512 X_NUC_5.L_CORE X_NUC_51.L_CORE 0.003463
K_513 X_NUC_5.L_CORE X_NUC_52.L_CORE 0.003505
K_514 X_NUC_5.L_CORE X_NUC_53.L_CORE 0.002670
K_515 X_NUC_5.L_CORE X_NUC_54.L_CORE 0.002696
K_516 X_NUC_5.L_CORE X_NUC_55.L_CORE 0.002675
K_517 X_NUC_5.L_CORE X_NUC_56.L_CORE 0.002664
K_518 X_NUC_5.L_CORE X_NUC_57.L_CORE 0.003931
K_519 X_NUC_5.L_CORE X_NUC_58.L_CORE 0.003899
K_520 X_NUC_5.L_CORE X_NUC_59.L_CORE 0.003875
K_521 X_NUC_5.L_CORE X_NUC_60.L_CORE 0.003863
K_522 X_NUC_5.L_CORE X_NUC_61.L_CORE 0.002673
K_523 X_NUC_5.L_CORE X_NUC_62.L_CORE 0.002695
K_524 X_NUC_5.L_CORE X_NUC_63.L_CORE 0.002661
K_525 X_NUC_5.L_CORE X_NUC_64.L_CORE 0.002675
K_526 X_NUC_5.L_CORE X_NUC_65.L_CORE 0.002807
K_527 X_NUC_5.L_CORE X_NUC_66.L_CORE 0.002819
K_528 X_NUC_5.L_CORE X_NUC_67.L_CORE 0.002804
K_529 X_NUC_5.L_CORE X_NUC_68.L_CORE 0.002782
K_530 X_NUC_5.L_CORE X_NUC_69.L_CORE 0.003218
K_531 X_NUC_5.L_CORE X_NUC_70.L_CORE 0.003210
K_532 X_NUC_5.L_CORE X_NUC_71.L_CORE 0.003173
K_533 X_NUC_5.L_CORE X_NUC_72.L_CORE 0.003193
K_534 X_NUC_5.L_CORE X_NUC_73.L_CORE 0.002396
K_535 X_NUC_5.L_CORE X_NUC_74.L_CORE 0.002415
K_536 X_NUC_5.L_CORE X_NUC_75.L_CORE 0.002391
K_537 X_NUC_5.L_CORE X_NUC_76.L_CORE 0.002391
K_538 X_NUC_5.L_CORE X_NUC_77.L_CORE 0.002948
K_539 X_NUC_5.L_CORE X_NUC_78.L_CORE 0.002944
K_540 X_NUC_5.L_CORE X_NUC_79.L_CORE 0.002927
K_541 X_NUC_5.L_CORE X_NUC_80.L_CORE 0.002912
K_542 X_NUC_5.L_CORE X_NUC_81.L_CORE 0.002584
K_543 X_NUC_5.L_CORE X_NUC_82.L_CORE 0.002594
K_544 X_NUC_5.L_CORE X_NUC_83.L_CORE 0.002563
K_545 X_NUC_5.L_CORE X_NUC_84.L_CORE 0.002576
K_546 X_NUC_5.L_CORE X_NUC_85.L_CORE 0.002392
K_547 X_NUC_5.L_CORE X_NUC_86.L_CORE 0.002404
K_548 X_NUC_5.L_CORE X_NUC_87.L_CORE 0.002386
K_549 X_NUC_5.L_CORE X_NUC_88.L_CORE 0.002378
K_550 X_NUC_5.L_CORE X_NUC_89.L_CORE 0.002724
K_551 X_NUC_5.L_CORE X_NUC_90.L_CORE 0.002722
K_552 X_NUC_5.L_CORE X_NUC_91.L_CORE 0.002697
K_553 X_NUC_5.L_CORE X_NUC_92.L_CORE 0.002699
K_554 X_NUC_5.L_CORE X_NUC_93.L_CORE 0.002320
K_555 X_NUC_5.L_CORE X_NUC_94.L_CORE 0.002332
K_556 X_NUC_5.L_CORE X_NUC_95.L_CORE 0.002308
K_557 X_NUC_5.L_CORE X_NUC_96.L_CORE 0.002311
K_558 X_NUC_5.L_CORE X_NUC_97.L_CORE 0.002411
K_559 X_NUC_5.L_CORE X_NUC_98.L_CORE 0.002416
K_560 X_NUC_5.L_CORE X_NUC_99.L_CORE 0.002397
K_561 X_NUC_5.L_CORE X_NUC_100.L_CORE 0.002392
K_562 X_NUC_5.L_CORE X_NUC_101.L_CORE 0.005761
K_563 X_NUC_5.L_CORE X_NUC_102.L_CORE 0.027386
K_564 X_NUC_5.L_CORE X_NUC_103.L_CORE 0.003970
K_565 X_NUC_5.L_CORE X_NUC_104.L_CORE 0.004702