* Applied Vacuum Engineering (AVE) - SPICE Netlist
* Element: Zirconium-91 (Z=40, A=91)
* Auto-generated topological mutual impedance array
* Nodes: 91



* -----------------------------------------------------------------
* NUCLEON (Baseline 6^3_2 Topological Defect)
* -----------------------------------------------------------------
.SUBCKT NUCLEON IN OUT
L_CORE IN OUT 1uH
C_CORE IN OUT 1pF
.ENDS NUCLEON



* -----------------------------------------------------------------
* MACROSCOPIC TOPOLOGY (Nucleon Array)
* -----------------------------------------------------------------
V_STIM NODE_1 0 AC 1 PULSE(0 100k 10n 1n 1n 50n 100n)

X_NUC_1 NODE_1 0 NUCLEON
X_NUC_2 NODE_2 0 NUCLEON
X_NUC_3 NODE_3 0 NUCLEON
X_NUC_4 NODE_4 0 NUCLEON
X_NUC_5 NODE_5 0 NUCLEON
X_NUC_6 NODE_6 0 NUCLEON
X_NUC_7 NODE_7 0 NUCLEON
X_NUC_8 NODE_8 0 NUCLEON
X_NUC_9 NODE_9 0 NUCLEON
X_NUC_10 NODE_10 0 NUCLEON
X_NUC_11 NODE_11 0 NUCLEON
X_NUC_12 NODE_12 0 NUCLEON
X_NUC_13 NODE_13 0 NUCLEON
X_NUC_14 NODE_14 0 NUCLEON
X_NUC_15 NODE_15 0 NUCLEON
X_NUC_16 NODE_16 0 NUCLEON
X_NUC_17 NODE_17 0 NUCLEON
X_NUC_18 NODE_18 0 NUCLEON
X_NUC_19 NODE_19 0 NUCLEON
X_NUC_20 NODE_20 0 NUCLEON
X_NUC_21 NODE_21 0 NUCLEON
X_NUC_22 NODE_22 0 NUCLEON
X_NUC_23 NODE_23 0 NUCLEON
X_NUC_24 NODE_24 0 NUCLEON
X_NUC_25 NODE_25 0 NUCLEON
X_NUC_26 NODE_26 0 NUCLEON
X_NUC_27 NODE_27 0 NUCLEON
X_NUC_28 NODE_28 0 NUCLEON
X_NUC_29 NODE_29 0 NUCLEON
X_NUC_30 NODE_30 0 NUCLEON
X_NUC_31 NODE_31 0 NUCLEON
X_NUC_32 NODE_32 0 NUCLEON
X_NUC_33 NODE_33 0 NUCLEON
X_NUC_34 NODE_34 0 NUCLEON
X_NUC_35 NODE_35 0 NUCLEON
X_NUC_36 NODE_36 0 NUCLEON
X_NUC_37 NODE_37 0 NUCLEON
X_NUC_38 NODE_38 0 NUCLEON
X_NUC_39 NODE_39 0 NUCLEON
X_NUC_40 NODE_40 0 NUCLEON
X_NUC_41 NODE_41 0 NUCLEON
X_NUC_42 NODE_42 0 NUCLEON
X_NUC_43 NODE_43 0 NUCLEON
X_NUC_44 NODE_44 0 NUCLEON
X_NUC_45 NODE_45 0 NUCLEON
X_NUC_46 NODE_46 0 NUCLEON
X_NUC_47 NODE_47 0 NUCLEON
X_NUC_48 NODE_48 0 NUCLEON
X_NUC_49 NODE_49 0 NUCLEON
X_NUC_50 NODE_50 0 NUCLEON
X_NUC_51 NODE_51 0 NUCLEON
X_NUC_52 NODE_52 0 NUCLEON
X_NUC_53 NODE_53 0 NUCLEON
X_NUC_54 NODE_54 0 NUCLEON
X_NUC_55 NODE_55 0 NUCLEON
X_NUC_56 NODE_56 0 NUCLEON
X_NUC_57 NODE_57 0 NUCLEON
X_NUC_58 NODE_58 0 NUCLEON
X_NUC_59 NODE_59 0 NUCLEON
X_NUC_60 NODE_60 0 NUCLEON
X_NUC_61 NODE_61 0 NUCLEON
X_NUC_62 NODE_62 0 NUCLEON
X_NUC_63 NODE_63 0 NUCLEON
X_NUC_64 NODE_64 0 NUCLEON
X_NUC_65 NODE_65 0 NUCLEON
X_NUC_66 NODE_66 0 NUCLEON
X_NUC_67 NODE_67 0 NUCLEON
X_NUC_68 NODE_68 0 NUCLEON
X_NUC_69 NODE_69 0 NUCLEON
X_NUC_70 NODE_70 0 NUCLEON
X_NUC_71 NODE_71 0 NUCLEON
X_NUC_72 NODE_72 0 NUCLEON
X_NUC_73 NODE_73 0 NUCLEON
X_NUC_74 NODE_74 0 NUCLEON
X_NUC_75 NODE_75 0 NUCLEON
X_NUC_76 NODE_76 0 NUCLEON
X_NUC_77 NODE_77 0 NUCLEON
X_NUC_78 NODE_78 0 NUCLEON
X_NUC_79 NODE_79 0 NUCLEON
X_NUC_80 NODE_80 0 NUCLEON
X_NUC_81 NODE_81 0 NUCLEON
X_NUC_82 NODE_82 0 NUCLEON
X_NUC_83 NODE_83 0 NUCLEON
X_NUC_84 NODE_84 0 NUCLEON
X_NUC_85 NODE_85 0 NUCLEON
X_NUC_86 NODE_86 0 NUCLEON
X_NUC_87 NODE_87 0 NUCLEON
X_NUC_88 NODE_88 0 NUCLEON
X_NUC_89 NODE_89 0 NUCLEON
X_NUC_90 NODE_90 0 NUCLEON
X_NUC_91 NODE_91 0 NUCLEON


* -----------------------------------------------------------------
* SPATIAL MUTUAL INDUCTANCE (K-FACTORS)
* -----------------------------------------------------------------
K_1 X_NUC_1.L_CORE X_NUC_2.L_CORE 0.207973
K_2 X_NUC_1.L_CORE X_NUC_3.L_CORE 0.207973
K_3 X_NUC_1.L_CORE X_NUC_4.L_CORE 0.207973
K_4 X_NUC_1.L_CORE X_NUC_5.L_CORE 0.007319
K_5 X_NUC_1.L_CORE X_NUC_6.L_CORE 0.007084
K_6 X_NUC_1.L_CORE X_NUC_7.L_CORE 0.007138
K_7 X_NUC_1.L_CORE X_NUC_8.L_CORE 0.007212
K_8 X_NUC_1.L_CORE X_NUC_9.L_CORE 0.007899
K_9 X_NUC_1.L_CORE X_NUC_10.L_CORE 0.008012
K_10 X_NUC_1.L_CORE X_NUC_11.L_CORE 0.007765
K_11 X_NUC_1.L_CORE X_NUC_12.L_CORE 0.008029
K_12 X_NUC_1.L_CORE X_NUC_13.L_CORE 0.008402
K_13 X_NUC_1.L_CORE X_NUC_14.L_CORE 0.008242
K_14 X_NUC_1.L_CORE X_NUC_15.L_CORE 0.008344
K_15 X_NUC_1.L_CORE X_NUC_16.L_CORE 0.008098
K_16 X_NUC_1.L_CORE X_NUC_17.L_CORE 0.004785
K_17 X_NUC_1.L_CORE X_NUC_18.L_CORE 0.004721
K_18 X_NUC_1.L_CORE X_NUC_19.L_CORE 0.004688
K_19 X_NUC_1.L_CORE X_NUC_20.L_CORE 0.004767
K_20 X_NUC_1.L_CORE X_NUC_21.L_CORE 0.007060
K_21 X_NUC_1.L_CORE X_NUC_22.L_CORE 0.007254
K_22 X_NUC_1.L_CORE X_NUC_23.L_CORE 0.007044
K_23 X_NUC_1.L_CORE X_NUC_24.L_CORE 0.007052
K_24 X_NUC_1.L_CORE X_NUC_25.L_CORE 0.004755
K_25 X_NUC_1.L_CORE X_NUC_26.L_CORE 0.004664
K_26 X_NUC_1.L_CORE X_NUC_27.L_CORE 0.004683
K_27 X_NUC_1.L_CORE X_NUC_28.L_CORE 0.004662
K_28 X_NUC_1.L_CORE X_NUC_29.L_CORE 0.004317
K_29 X_NUC_1.L_CORE X_NUC_30.L_CORE 0.004321
K_30 X_NUC_1.L_CORE X_NUC_31.L_CORE 0.004249
K_31 X_NUC_1.L_CORE X_NUC_32.L_CORE 0.004324
K_32 X_NUC_1.L_CORE X_NUC_33.L_CORE 0.005442
K_33 X_NUC_1.L_CORE X_NUC_34.L_CORE 0.005467
K_34 X_NUC_1.L_CORE X_NUC_35.L_CORE 0.005423
K_35 X_NUC_1.L_CORE X_NUC_36.L_CORE 0.005336
K_36 X_NUC_1.L_CORE X_NUC_37.L_CORE 0.003681
K_37 X_NUC_1.L_CORE X_NUC_38.L_CORE 0.003634
K_38 X_NUC_1.L_CORE X_NUC_39.L_CORE 0.003619
K_39 X_NUC_1.L_CORE X_NUC_40.L_CORE 0.003643
K_40 X_NUC_1.L_CORE X_NUC_41.L_CORE 0.004285
K_41 X_NUC_1.L_CORE X_NUC_42.L_CORE 0.004332
K_42 X_NUC_1.L_CORE X_NUC_43.L_CORE 0.004244
K_43 X_NUC_1.L_CORE X_NUC_44.L_CORE 0.004280
K_44 X_NUC_1.L_CORE X_NUC_45.L_CORE 0.004001
K_45 X_NUC_1.L_CORE X_NUC_46.L_CORE 0.003965
K_46 X_NUC_1.L_CORE X_NUC_47.L_CORE 0.003959
K_47 X_NUC_1.L_CORE X_NUC_48.L_CORE 0.003926
K_48 X_NUC_1.L_CORE X_NUC_49.L_CORE 0.003349
K_49 X_NUC_1.L_CORE X_NUC_50.L_CORE 0.003334
K_50 X_NUC_1.L_CORE X_NUC_51.L_CORE 0.003298
K_51 X_NUC_1.L_CORE X_NUC_52.L_CORE 0.003333
K_52 X_NUC_1.L_CORE X_NUC_53.L_CORE 0.004007
K_53 X_NUC_1.L_CORE X_NUC_54.L_CORE 0.004037
K_54 X_NUC_1.L_CORE X_NUC_55.L_CORE 0.003980
K_55 X_NUC_1.L_CORE X_NUC_56.L_CORE 0.003966
K_56 X_NUC_1.L_CORE X_NUC_57.L_CORE 0.003254
K_57 X_NUC_1.L_CORE X_NUC_58.L_CORE 0.003222
K_58 X_NUC_1.L_CORE X_NUC_59.L_CORE 0.003209
K_59 X_NUC_1.L_CORE X_NUC_60.L_CORE 0.003211
K_60 X_NUC_1.L_CORE X_NUC_61.L_CORE 0.003287
K_61 X_NUC_1.L_CORE X_NUC_62.L_CORE 0.003295
K_62 X_NUC_1.L_CORE X_NUC_63.L_CORE 0.003247
K_63 X_NUC_1.L_CORE X_NUC_64.L_CORE 0.003273
K_64 X_NUC_1.L_CORE X_NUC_65.L_CORE 0.003421
K_65 X_NUC_1.L_CORE X_NUC_66.L_CORE 0.003416
K_66 X_NUC_1.L_CORE X_NUC_67.L_CORE 0.003390
K_67 X_NUC_1.L_CORE X_NUC_68.L_CORE 0.003373
K_68 X_NUC_1.L_CORE X_NUC_69.L_CORE 0.002960
K_69 X_NUC_1.L_CORE X_NUC_70.L_CORE 0.002944
K_70 X_NUC_1.L_CORE X_NUC_71.L_CORE 0.002920
K_71 X_NUC_1.L_CORE X_NUC_72.L_CORE 0.002934
K_72 X_NUC_1.L_CORE X_NUC_73.L_CORE 0.003153
K_73 X_NUC_1.L_CORE X_NUC_74.L_CORE 0.003161
K_74 X_NUC_1.L_CORE X_NUC_75.L_CORE 0.003121
K_75 X_NUC_1.L_CORE X_NUC_76.L_CORE 0.003127
K_76 X_NUC_1.L_CORE X_NUC_77.L_CORE 0.002969
K_77 X_NUC_1.L_CORE X_NUC_78.L_CORE 0.002959
K_78 X_NUC_1.L_CORE X_NUC_79.L_CORE 0.002935
K_79 X_NUC_1.L_CORE X_NUC_80.L_CORE 0.002935
K_80 X_NUC_1.L_CORE X_NUC_81.L_CORE 0.028750
K_81 X_NUC_1.L_CORE X_NUC_82.L_CORE 0.005378
K_82 X_NUC_1.L_CORE X_NUC_83.L_CORE 0.005519
K_83 X_NUC_1.L_CORE X_NUC_84.L_CORE 0.005345
K_84 X_NUC_1.L_CORE X_NUC_85.L_CORE 0.003509
K_85 X_NUC_1.L_CORE X_NUC_86.L_CORE 0.004372
K_86 X_NUC_1.L_CORE X_NUC_87.L_CORE 0.003327
K_87 X_NUC_1.L_CORE X_NUC_88.L_CORE 0.003082
K_88 X_NUC_1.L_CORE X_NUC_89.L_CORE 0.003318
K_89 X_NUC_1.L_CORE X_NUC_90.L_CORE 0.002720
K_90 X_NUC_1.L_CORE X_NUC_91.L_CORE 0.002789
K_91 X_NUC_2.L_CORE X_NUC_3.L_CORE 0.207973
K_92 X_NUC_2.L_CORE X_NUC_4.L_CORE 0.207973
K_93 X_NUC_2.L_CORE X_NUC_5.L_CORE 0.007570
K_94 X_NUC_2.L_CORE X_NUC_6.L_CORE 0.007319
K_95 X_NUC_2.L_CORE X_NUC_7.L_CORE 0.007374
K_96 X_NUC_2.L_CORE X_NUC_8.L_CORE 0.007457
K_97 X_NUC_2.L_CORE X_NUC_9.L_CORE 0.007779
K_98 X_NUC_2.L_CORE X_NUC_10.L_CORE 0.007899
K_99 X_NUC_2.L_CORE X_NUC_11.L_CORE 0.007656
K_100 X_NUC_2.L_CORE X_NUC_12.L_CORE 0.007909
K_101 X_NUC_2.L_CORE X_NUC_13.L_CORE 0.008557
K_102 X_NUC_2.L_CORE X_NUC_14.L_CORE 0.008402
K_103 X_NUC_2.L_CORE X_NUC_15.L_CORE 0.008502
K_104 X_NUC_2.L_CORE X_NUC_16.L_CORE 0.008243
K_105 X_NUC_2.L_CORE X_NUC_17.L_CORE 0.004848
K_106 X_NUC_2.L_CORE X_NUC_18.L_CORE 0.004785
K_107 X_NUC_2.L_CORE X_NUC_19.L_CORE 0.004749
K_108 X_NUC_2.L_CORE X_NUC_20.L_CORE 0.004831
K_109 X_NUC_2.L_CORE X_NUC_21.L_CORE 0.006874
K_110 X_NUC_2.L_CORE X_NUC_22.L_CORE 0.007060
K_111 X_NUC_2.L_CORE X_NUC_23.L_CORE 0.006863
K_112 X_NUC_2.L_CORE X_NUC_24.L_CORE 0.006870
K_113 X_NUC_2.L_CORE X_NUC_25.L_CORE 0.004849
K_114 X_NUC_2.L_CORE X_NUC_26.L_CORE 0.004755
K_115 X_NUC_2.L_CORE X_NUC_27.L_CORE 0.004773
K_116 X_NUC_2.L_CORE X_NUC_28.L_CORE 0.004751
K_117 X_NUC_2.L_CORE X_NUC_29.L_CORE 0.004312
K_118 X_NUC_2.L_CORE X_NUC_30.L_CORE 0.004317
K_119 X_NUC_2.L_CORE X_NUC_31.L_CORE 0.004245
K_120 X_NUC_2.L_CORE X_NUC_32.L_CORE 0.004319
K_121 X_NUC_2.L_CORE X_NUC_33.L_CORE 0.005415
K_122 X_NUC_2.L_CORE X_NUC_34.L_CORE 0.005442
K_123 X_NUC_2.L_CORE X_NUC_35.L_CORE 0.005398
K_124 X_NUC_2.L_CORE X_NUC_36.L_CORE 0.005312
K_125 X_NUC_2.L_CORE X_NUC_37.L_CORE 0.003728
K_126 X_NUC_2.L_CORE X_NUC_38.L_CORE 0.003681
K_127 X_NUC_2.L_CORE X_NUC_39.L_CORE 0.003665
K_128 X_NUC_2.L_CORE X_NUC_40.L_CORE 0.003690
K_129 X_NUC_2.L_CORE X_NUC_41.L_CORE 0.004238
K_130 X_NUC_2.L_CORE X_NUC_42.L_CORE 0.004285
K_131 X_NUC_2.L_CORE X_NUC_43.L_CORE 0.004199
K_132 X_NUC_2.L_CORE X_NUC_44.L_CORE 0.004234
K_133 X_NUC_2.L_CORE X_NUC_45.L_CORE 0.004037
K_134 X_NUC_2.L_CORE X_NUC_46.L_CORE 0.004001
K_135 X_NUC_2.L_CORE X_NUC_47.L_CORE 0.003994
K_136 X_NUC_2.L_CORE X_NUC_48.L_CORE 0.003960
K_137 X_NUC_2.L_CORE X_NUC_49.L_CORE 0.003363
K_138 X_NUC_2.L_CORE X_NUC_50.L_CORE 0.003349
K_139 X_NUC_2.L_CORE X_NUC_51.L_CORE 0.003312
K_140 X_NUC_2.L_CORE X_NUC_52.L_CORE 0.003347
K_141 X_NUC_2.L_CORE X_NUC_53.L_CORE 0.003977
K_142 X_NUC_2.L_CORE X_NUC_54.L_CORE 0.004007
K_143 X_NUC_2.L_CORE X_NUC_55.L_CORE 0.003951
K_144 X_NUC_2.L_CORE X_NUC_56.L_CORE 0.003937
K_145 X_NUC_2.L_CORE X_NUC_57.L_CORE 0.003285
K_146 X_NUC_2.L_CORE X_NUC_58.L_CORE 0.003254
K_147 X_NUC_2.L_CORE X_NUC_59.L_CORE 0.003240
K_148 X_NUC_2.L_CORE X_NUC_60.L_CORE 0.003242
K_149 X_NUC_2.L_CORE X_NUC_61.L_CORE 0.003278
K_150 X_NUC_2.L_CORE X_NUC_62.L_CORE 0.003287
K_151 X_NUC_2.L_CORE X_NUC_63.L_CORE 0.003239
K_152 X_NUC_2.L_CORE X_NUC_64.L_CORE 0.003264
K_153 X_NUC_2.L_CORE X_NUC_65.L_CORE 0.003426
K_154 X_NUC_2.L_CORE X_NUC_66.L_CORE 0.003421
K_155 X_NUC_2.L_CORE X_NUC_67.L_CORE 0.003395
K_156 X_NUC_2.L_CORE X_NUC_68.L_CORE 0.003378
K_157 X_NUC_2.L_CORE X_NUC_69.L_CORE 0.002975
K_158 X_NUC_2.L_CORE X_NUC_70.L_CORE 0.002960
K_159 X_NUC_2.L_CORE X_NUC_71.L_CORE 0.002934
K_160 X_NUC_2.L_CORE X_NUC_72.L_CORE 0.002949
K_161 X_NUC_2.L_CORE X_NUC_73.L_CORE 0.003145
K_162 X_NUC_2.L_CORE X_NUC_74.L_CORE 0.003153
K_163 X_NUC_2.L_CORE X_NUC_75.L_CORE 0.003113
K_164 X_NUC_2.L_CORE X_NUC_76.L_CORE 0.003119
K_165 X_NUC_2.L_CORE X_NUC_77.L_CORE 0.002979
K_166 X_NUC_2.L_CORE X_NUC_78.L_CORE 0.002969
K_167 X_NUC_2.L_CORE X_NUC_79.L_CORE 0.002945
K_168 X_NUC_2.L_CORE X_NUC_80.L_CORE 0.002945
K_169 X_NUC_2.L_CORE X_NUC_81.L_CORE 0.026547
K_170 X_NUC_2.L_CORE X_NUC_82.L_CORE 0.005516
K_171 X_NUC_2.L_CORE X_NUC_83.L_CORE 0.005446
K_172 X_NUC_2.L_CORE X_NUC_84.L_CORE 0.005392
K_173 X_NUC_2.L_CORE X_NUC_85.L_CORE 0.003541
K_174 X_NUC_2.L_CORE X_NUC_86.L_CORE 0.004309
K_175 X_NUC_2.L_CORE X_NUC_87.L_CORE 0.003365
K_176 X_NUC_2.L_CORE X_NUC_88.L_CORE 0.003079
K_177 X_NUC_2.L_CORE X_NUC_89.L_CORE 0.003312
K_178 X_NUC_2.L_CORE X_NUC_90.L_CORE 0.002737
K_179 X_NUC_2.L_CORE X_NUC_91.L_CORE 0.002784
K_180 X_NUC_3.L_CORE X_NUC_4.L_CORE 0.207973
K_181 X_NUC_3.L_CORE X_NUC_5.L_CORE 0.007506
K_182 X_NUC_3.L_CORE X_NUC_6.L_CORE 0.007257
K_183 X_NUC_3.L_CORE X_NUC_7.L_CORE 0.007319
K_184 X_NUC_3.L_CORE X_NUC_8.L_CORE 0.007395
K_185 X_NUC_3.L_CORE X_NUC_9.L_CORE 0.008027
K_186 X_NUC_3.L_CORE X_NUC_10.L_CORE 0.008153
K_187 X_NUC_3.L_CORE X_NUC_11.L_CORE 0.007899
K_188 X_NUC_3.L_CORE X_NUC_12.L_CORE 0.008170
K_189 X_NUC_3.L_CORE X_NUC_13.L_CORE 0.008448
K_190 X_NUC_3.L_CORE X_NUC_14.L_CORE 0.008292
K_191 X_NUC_3.L_CORE X_NUC_15.L_CORE 0.008402
K_192 X_NUC_3.L_CORE X_NUC_16.L_CORE 0.008145
K_193 X_NUC_3.L_CORE X_NUC_17.L_CORE 0.004885
K_194 X_NUC_3.L_CORE X_NUC_18.L_CORE 0.004819
K_195 X_NUC_3.L_CORE X_NUC_19.L_CORE 0.004785
K_196 X_NUC_3.L_CORE X_NUC_20.L_CORE 0.004868
K_197 X_NUC_3.L_CORE X_NUC_21.L_CORE 0.007068
K_198 X_NUC_3.L_CORE X_NUC_22.L_CORE 0.007267
K_199 X_NUC_3.L_CORE X_NUC_23.L_CORE 0.007060
K_200 X_NUC_3.L_CORE X_NUC_24.L_CORE 0.007064
K_201 X_NUC_3.L_CORE X_NUC_25.L_CORE 0.004828
K_202 X_NUC_3.L_CORE X_NUC_26.L_CORE 0.004735
K_203 X_NUC_3.L_CORE X_NUC_27.L_CORE 0.004755
K_204 X_NUC_3.L_CORE X_NUC_28.L_CORE 0.004732
K_205 X_NUC_3.L_CORE X_NUC_29.L_CORE 0.004387
K_206 X_NUC_3.L_CORE X_NUC_30.L_CORE 0.004392
K_207 X_NUC_3.L_CORE X_NUC_31.L_CORE 0.004317
K_208 X_NUC_3.L_CORE X_NUC_32.L_CORE 0.004395
K_209 X_NUC_3.L_CORE X_NUC_33.L_CORE 0.005458
K_210 X_NUC_3.L_CORE X_NUC_34.L_CORE 0.005485
K_211 X_NUC_3.L_CORE X_NUC_35.L_CORE 0.005442
K_212 X_NUC_3.L_CORE X_NUC_36.L_CORE 0.005353
K_213 X_NUC_3.L_CORE X_NUC_37.L_CORE 0.003744
K_214 X_NUC_3.L_CORE X_NUC_38.L_CORE 0.003695
K_215 X_NUC_3.L_CORE X_NUC_39.L_CORE 0.003681
K_216 X_NUC_3.L_CORE X_NUC_40.L_CORE 0.003705
K_217 X_NUC_3.L_CORE X_NUC_41.L_CORE 0.004326
K_218 X_NUC_3.L_CORE X_NUC_42.L_CORE 0.004375
K_219 X_NUC_3.L_CORE X_NUC_43.L_CORE 0.004285
K_220 X_NUC_3.L_CORE X_NUC_44.L_CORE 0.004322
K_221 X_NUC_3.L_CORE X_NUC_45.L_CORE 0.004043
K_222 X_NUC_3.L_CORE X_NUC_46.L_CORE 0.004006
K_223 X_NUC_3.L_CORE X_NUC_47.L_CORE 0.004001
K_224 X_NUC_3.L_CORE X_NUC_48.L_CORE 0.003966
K_225 X_NUC_3.L_CORE X_NUC_49.L_CORE 0.003401
K_226 X_NUC_3.L_CORE X_NUC_50.L_CORE 0.003386
K_227 X_NUC_3.L_CORE X_NUC_51.L_CORE 0.003349
K_228 X_NUC_3.L_CORE X_NUC_52.L_CORE 0.003385
K_229 X_NUC_3.L_CORE X_NUC_53.L_CORE 0.004033
K_230 X_NUC_3.L_CORE X_NUC_54.L_CORE 0.004064
K_231 X_NUC_3.L_CORE X_NUC_55.L_CORE 0.004007
K_232 X_NUC_3.L_CORE X_NUC_56.L_CORE 0.003991
K_233 X_NUC_3.L_CORE X_NUC_57.L_CORE 0.003299
K_234 X_NUC_3.L_CORE X_NUC_58.L_CORE 0.003267
K_235 X_NUC_3.L_CORE X_NUC_59.L_CORE 0.003254
K_236 X_NUC_3.L_CORE X_NUC_60.L_CORE 0.003255
K_237 X_NUC_3.L_CORE X_NUC_61.L_CORE 0.003327
K_238 X_NUC_3.L_CORE X_NUC_62.L_CORE 0.003336
K_239 X_NUC_3.L_CORE X_NUC_63.L_CORE 0.003287
K_240 X_NUC_3.L_CORE X_NUC_64.L_CORE 0.003313
K_241 X_NUC_3.L_CORE X_NUC_65.L_CORE 0.003453
K_242 X_NUC_3.L_CORE X_NUC_66.L_CORE 0.003447
K_243 X_NUC_3.L_CORE X_NUC_67.L_CORE 0.003421
K_244 X_NUC_3.L_CORE X_NUC_68.L_CORE 0.003403
K_245 X_NUC_3.L_CORE X_NUC_69.L_CORE 0.003001
K_246 X_NUC_3.L_CORE X_NUC_70.L_CORE 0.002985
K_247 X_NUC_3.L_CORE X_NUC_71.L_CORE 0.002960
K_248 X_NUC_3.L_CORE X_NUC_72.L_CORE 0.002974
K_249 X_NUC_3.L_CORE X_NUC_73.L_CORE 0.003185
K_250 X_NUC_3.L_CORE X_NUC_74.L_CORE 0.003193
K_251 X_NUC_3.L_CORE X_NUC_75.L_CORE 0.003153
K_252 X_NUC_3.L_CORE X_NUC_76.L_CORE 0.003158
K_253 X_NUC_3.L_CORE X_NUC_77.L_CORE 0.003003
K_254 X_NUC_3.L_CORE X_NUC_78.L_CORE 0.002993
K_255 X_NUC_3.L_CORE X_NUC_79.L_CORE 0.002969
K_256 X_NUC_3.L_CORE X_NUC_80.L_CORE 0.002969
K_257 X_NUC_3.L_CORE X_NUC_81.L_CORE 0.025318
K_258 X_NUC_3.L_CORE X_NUC_82.L_CORE 0.005472
K_259 X_NUC_3.L_CORE X_NUC_83.L_CORE 0.005573
K_260 X_NUC_3.L_CORE X_NUC_84.L_CORE 0.005360
K_261 X_NUC_3.L_CORE X_NUC_85.L_CORE 0.003565
K_262 X_NUC_3.L_CORE X_NUC_86.L_CORE 0.004385
K_263 X_NUC_3.L_CORE X_NUC_87.L_CORE 0.003366
K_264 X_NUC_3.L_CORE X_NUC_88.L_CORE 0.003120
K_265 X_NUC_3.L_CORE X_NUC_89.L_CORE 0.003339
K_266 X_NUC_3.L_CORE X_NUC_90.L_CORE 0.002755
K_267 X_NUC_3.L_CORE X_NUC_91.L_CORE 0.002816
K_268 X_NUC_4.L_CORE X_NUC_5.L_CORE 0.007422
K_269 X_NUC_4.L_CORE X_NUC_6.L_CORE 0.007181
K_270 X_NUC_4.L_CORE X_NUC_7.L_CORE 0.007237
K_271 X_NUC_4.L_CORE X_NUC_8.L_CORE 0.007319
K_272 X_NUC_4.L_CORE X_NUC_9.L_CORE 0.007764
K_273 X_NUC_4.L_CORE X_NUC_10.L_CORE 0.007877
K_274 X_NUC_4.L_CORE X_NUC_11.L_CORE 0.007642
K_275 X_NUC_4.L_CORE X_NUC_12.L_CORE 0.007899
K_276 X_NUC_4.L_CORE X_NUC_13.L_CORE 0.008727
K_277 X_NUC_4.L_CORE X_NUC_14.L_CORE 0.008556
K_278 X_NUC_4.L_CORE X_NUC_15.L_CORE 0.008669
K_279 X_NUC_4.L_CORE X_NUC_16.L_CORE 0.008402
K_280 X_NUC_4.L_CORE X_NUC_17.L_CORE 0.004800
K_281 X_NUC_4.L_CORE X_NUC_18.L_CORE 0.004737
K_282 X_NUC_4.L_CORE X_NUC_19.L_CORE 0.004703
K_283 X_NUC_4.L_CORE X_NUC_20.L_CORE 0.004785
K_284 X_NUC_4.L_CORE X_NUC_21.L_CORE 0.007061
K_285 X_NUC_4.L_CORE X_NUC_22.L_CORE 0.007259
K_286 X_NUC_4.L_CORE X_NUC_23.L_CORE 0.007048
K_287 X_NUC_4.L_CORE X_NUC_24.L_CORE 0.007060
K_288 X_NUC_4.L_CORE X_NUC_25.L_CORE 0.004852
K_289 X_NUC_4.L_CORE X_NUC_26.L_CORE 0.004757
K_290 X_NUC_4.L_CORE X_NUC_27.L_CORE 0.004776
K_291 X_NUC_4.L_CORE X_NUC_28.L_CORE 0.004755
K_292 X_NUC_4.L_CORE X_NUC_29.L_CORE 0.004309
K_293 X_NUC_4.L_CORE X_NUC_30.L_CORE 0.004314
K_294 X_NUC_4.L_CORE X_NUC_31.L_CORE 0.004242
K_295 X_NUC_4.L_CORE X_NUC_32.L_CORE 0.004317
K_296 X_NUC_4.L_CORE X_NUC_33.L_CORE 0.005551
K_297 X_NUC_4.L_CORE X_NUC_34.L_CORE 0.005579
K_298 X_NUC_4.L_CORE X_NUC_35.L_CORE 0.005533
K_299 X_NUC_4.L_CORE X_NUC_36.L_CORE 0.005442
K_300 X_NUC_4.L_CORE X_NUC_37.L_CORE 0.003718
K_301 X_NUC_4.L_CORE X_NUC_38.L_CORE 0.003670
K_302 X_NUC_4.L_CORE X_NUC_39.L_CORE 0.003655
K_303 X_NUC_4.L_CORE X_NUC_40.L_CORE 0.003681
K_304 X_NUC_4.L_CORE X_NUC_41.L_CORE 0.004289
K_305 X_NUC_4.L_CORE X_NUC_42.L_CORE 0.004337
K_306 X_NUC_4.L_CORE X_NUC_43.L_CORE 0.004248
K_307 X_NUC_4.L_CORE X_NUC_44.L_CORE 0.004285
K_308 X_NUC_4.L_CORE X_NUC_45.L_CORE 0.004079
K_309 X_NUC_4.L_CORE X_NUC_46.L_CORE 0.004042
K_310 X_NUC_4.L_CORE X_NUC_47.L_CORE 0.004036
K_311 X_NUC_4.L_CORE X_NUC_48.L_CORE 0.004001
K_312 X_NUC_4.L_CORE X_NUC_49.L_CORE 0.003364
K_313 X_NUC_4.L_CORE X_NUC_50.L_CORE 0.003349
K_314 X_NUC_4.L_CORE X_NUC_51.L_CORE 0.003313
K_315 X_NUC_4.L_CORE X_NUC_52.L_CORE 0.003349
K_316 X_NUC_4.L_CORE X_NUC_53.L_CORE 0.004049
K_317 X_NUC_4.L_CORE X_NUC_54.L_CORE 0.004080
K_318 X_NUC_4.L_CORE X_NUC_55.L_CORE 0.004022
K_319 X_NUC_4.L_CORE X_NUC_56.L_CORE 0.004007
K_320 X_NUC_4.L_CORE X_NUC_57.L_CORE 0.003297
K_321 X_NUC_4.L_CORE X_NUC_58.L_CORE 0.003265
K_322 X_NUC_4.L_CORE X_NUC_59.L_CORE 0.003251
K_323 X_NUC_4.L_CORE X_NUC_60.L_CORE 0.003254
K_324 X_NUC_4.L_CORE X_NUC_61.L_CORE 0.003300
K_325 X_NUC_4.L_CORE X_NUC_62.L_CORE 0.003309
K_326 X_NUC_4.L_CORE X_NUC_63.L_CORE 0.003261
K_327 X_NUC_4.L_CORE X_NUC_64.L_CORE 0.003287
K_328 X_NUC_4.L_CORE X_NUC_65.L_CORE 0.003471
K_329 X_NUC_4.L_CORE X_NUC_66.L_CORE 0.003466
K_330 X_NUC_4.L_CORE X_NUC_67.L_CORE 0.003439
K_331 X_NUC_4.L_CORE X_NUC_68.L_CORE 0.003421
K_332 X_NUC_4.L_CORE X_NUC_69.L_CORE 0.002986
K_333 X_NUC_4.L_CORE X_NUC_70.L_CORE 0.002971
K_334 X_NUC_4.L_CORE X_NUC_71.L_CORE 0.002945
K_335 X_NUC_4.L_CORE X_NUC_72.L_CORE 0.002960
K_336 X_NUC_4.L_CORE X_NUC_73.L_CORE 0.003179
K_337 X_NUC_4.L_CORE X_NUC_74.L_CORE 0.003187
K_338 X_NUC_4.L_CORE X_NUC_75.L_CORE 0.003147
K_339 X_NUC_4.L_CORE X_NUC_76.L_CORE 0.003153
K_340 X_NUC_4.L_CORE X_NUC_77.L_CORE 0.003003
K_341 X_NUC_4.L_CORE X_NUC_78.L_CORE 0.002993
K_342 X_NUC_4.L_CORE X_NUC_79.L_CORE 0.002968
K_343 X_NUC_4.L_CORE X_NUC_80.L_CORE 0.002969
K_344 X_NUC_4.L_CORE X_NUC_81.L_CORE 0.027206
K_345 X_NUC_4.L_CORE X_NUC_82.L_CORE 0.005438
K_346 X_NUC_4.L_CORE X_NUC_83.L_CORE 0.005454
K_347 X_NUC_4.L_CORE X_NUC_84.L_CORE 0.005474
K_348 X_NUC_4.L_CORE X_NUC_85.L_CORE 0.003522
K_349 X_NUC_4.L_CORE X_NUC_86.L_CORE 0.004387
K_350 X_NUC_4.L_CORE X_NUC_87.L_CORE 0.003377
K_351 X_NUC_4.L_CORE X_NUC_88.L_CORE 0.003089
K_352 X_NUC_4.L_CORE X_NUC_89.L_CORE 0.003360
K_353 X_NUC_4.L_CORE X_NUC_90.L_CORE 0.002746
K_354 X_NUC_4.L_CORE X_NUC_91.L_CORE 0.002809
K_355 X_NUC_5.L_CORE X_NUC_6.L_CORE 0.207973
K_356 X_NUC_5.L_CORE X_NUC_7.L_CORE 0.207973
K_357 X_NUC_5.L_CORE X_NUC_8.L_CORE 0.207973
K_358 X_NUC_5.L_CORE X_NUC_9.L_CORE 0.005209
K_359 X_NUC_5.L_CORE X_NUC_10.L_CORE 0.005333
K_360 X_NUC_5.L_CORE X_NUC_11.L_CORE 0.005237
K_361 X_NUC_5.L_CORE X_NUC_12.L_CORE 0.005285
K_362 X_NUC_5.L_CORE X_NUC_13.L_CORE 0.006384
K_363 X_NUC_5.L_CORE X_NUC_14.L_CORE 0.006475
K_364 X_NUC_5.L_CORE X_NUC_15.L_CORE 0.006482
K_365 X_NUC_5.L_CORE X_NUC_16.L_CORE 0.006314
K_366 X_NUC_5.L_CORE X_NUC_17.L_CORE 0.007967
K_367 X_NUC_5.L_CORE X_NUC_18.L_CORE 0.007981
K_368 X_NUC_5.L_CORE X_NUC_19.L_CORE 0.007753
K_369 X_NUC_5.L_CORE X_NUC_20.L_CORE 0.008022
K_370 X_NUC_5.L_CORE X_NUC_21.L_CORE 0.003944
K_371 X_NUC_5.L_CORE X_NUC_22.L_CORE 0.004016
K_372 X_NUC_5.L_CORE X_NUC_23.L_CORE 0.003970
K_373 X_NUC_5.L_CORE X_NUC_24.L_CORE 0.003959
K_374 X_NUC_5.L_CORE X_NUC_25.L_CORE 0.007665
K_375 X_NUC_5.L_CORE X_NUC_26.L_CORE 0.007555
K_376 X_NUC_5.L_CORE X_NUC_27.L_CORE 0.007568
K_377 X_NUC_5.L_CORE X_NUC_28.L_CORE 0.007397
K_378 X_NUC_5.L_CORE X_NUC_29.L_CORE 0.004275
K_379 X_NUC_5.L_CORE X_NUC_30.L_CORE 0.004328
K_380 X_NUC_5.L_CORE X_NUC_31.L_CORE 0.004244
K_381 X_NUC_5.L_CORE X_NUC_32.L_CORE 0.004302
K_382 X_NUC_5.L_CORE X_NUC_33.L_CORE 0.003887
K_383 X_NUC_5.L_CORE X_NUC_34.L_CORE 0.003933
K_384 X_NUC_5.L_CORE X_NUC_35.L_CORE 0.003908
K_385 X_NUC_5.L_CORE X_NUC_36.L_CORE 0.003863
K_386 X_NUC_5.L_CORE X_NUC_37.L_CORE 0.006024
K_387 X_NUC_5.L_CORE X_NUC_38.L_CORE 0.005951
K_388 X_NUC_5.L_CORE X_NUC_39.L_CORE 0.005857
K_389 X_NUC_5.L_CORE X_NUC_40.L_CORE 0.005918
K_390 X_NUC_5.L_CORE X_NUC_41.L_CORE 0.003316
K_391 X_NUC_5.L_CORE X_NUC_42.L_CORE 0.003361
K_392 X_NUC_5.L_CORE X_NUC_43.L_CORE 0.003314
K_393 X_NUC_5.L_CORE X_NUC_44.L_CORE 0.003323
K_394 X_NUC_5.L_CORE X_NUC_45.L_CORE 0.004306
K_395 X_NUC_5.L_CORE X_NUC_46.L_CORE 0.004309
K_396 X_NUC_5.L_CORE X_NUC_47.L_CORE 0.004290
K_397 X_NUC_5.L_CORE X_NUC_48.L_CORE 0.004232
K_398 X_NUC_5.L_CORE X_NUC_49.L_CORE 0.003983
K_399 X_NUC_5.L_CORE X_NUC_50.L_CORE 0.003996
K_400 X_NUC_5.L_CORE X_NUC_51.L_CORE 0.003926
K_401 X_NUC_5.L_CORE X_NUC_52.L_CORE 0.003972
K_402 X_NUC_5.L_CORE X_NUC_53.L_CORE 0.003122
K_403 X_NUC_5.L_CORE X_NUC_54.L_CORE 0.003156
K_404 X_NUC_5.L_CORE X_NUC_55.L_CORE 0.003124
K_405 X_NUC_5.L_CORE X_NUC_56.L_CORE 0.003110
K_406 X_NUC_5.L_CORE X_NUC_57.L_CORE 0.004268
K_407 X_NUC_5.L_CORE X_NUC_58.L_CORE 0.004244
K_408 X_NUC_5.L_CORE X_NUC_59.L_CORE 0.004203
K_409 X_NUC_5.L_CORE X_NUC_60.L_CORE 0.004192
K_410 X_NUC_5.L_CORE X_NUC_61.L_CORE 0.003126
K_411 X_NUC_5.L_CORE X_NUC_62.L_CORE 0.003152
K_412 X_NUC_5.L_CORE X_NUC_63.L_CORE 0.003106
K_413 X_NUC_5.L_CORE X_NUC_64.L_CORE 0.003122
K_414 X_NUC_5.L_CORE X_NUC_65.L_CORE 0.003237
K_415 X_NUC_5.L_CORE X_NUC_66.L_CORE 0.003254
K_416 X_NUC_5.L_CORE X_NUC_67.L_CORE 0.003226
K_417 X_NUC_5.L_CORE X_NUC_68.L_CORE 0.003205
K_418 X_NUC_5.L_CORE X_NUC_69.L_CORE 0.003502
K_419 X_NUC_5.L_CORE X_NUC_70.L_CORE 0.003502
K_420 X_NUC_5.L_CORE X_NUC_71.L_CORE 0.003455
K_421 X_NUC_5.L_CORE X_NUC_72.L_CORE 0.003469
K_422 X_NUC_5.L_CORE X_NUC_73.L_CORE 0.002899
K_423 X_NUC_5.L_CORE X_NUC_74.L_CORE 0.002921
K_424 X_NUC_5.L_CORE X_NUC_75.L_CORE 0.002886
K_425 X_NUC_5.L_CORE X_NUC_76.L_CORE 0.002885
K_426 X_NUC_5.L_CORE X_NUC_77.L_CORE 0.003153
K_427 X_NUC_5.L_CORE X_NUC_78.L_CORE 0.003160
K_428 X_NUC_5.L_CORE X_NUC_79.L_CORE 0.003127
K_429 X_NUC_5.L_CORE X_NUC_80.L_CORE 0.003121
K_430 X_NUC_5.L_CORE X_NUC_81.L_CORE 0.006047
K_431 X_NUC_5.L_CORE X_NUC_82.L_CORE 0.019636
K_432 X_NUC_5.L_CORE X_NUC_83.L_CORE 0.004070
K_433 X_NUC_5.L_CORE X_NUC_84.L_CORE 0.004649
K_434 X_NUC_5.L_CORE X_NUC_85.L_CORE 0.005092
K_435 X_NUC_5.L_CORE X_NUC_86.L_CORE 0.003065
K_436 X_NUC_5.L_CORE X_NUC_87.L_CORE 0.004376
K_437 X_NUC_5.L_CORE X_NUC_88.L_CORE 0.003137
K_438 X_NUC_5.L_CORE X_NUC_89.L_CORE 0.002913
K_439 X_NUC_5.L_CORE X_NUC_90.L_CORE 0.003303
K_440 X_NUC_5.L_CORE X_NUC_91.L_CORE 0.002676
K_441 X_NUC_6.L_CORE X_NUC_7.L_CORE 0.207973
K_442 X_NUC_6.L_CORE X_NUC_8.L_CORE 0.207973
K_443 X_NUC_6.L_CORE X_NUC_9.L_CORE 0.005091
K_444 X_NUC_6.L_CORE X_NUC_10.L_CORE 0.005209
K_445 X_NUC_6.L_CORE X_NUC_11.L_CORE 0.005118
K_446 X_NUC_6.L_CORE X_NUC_12.L_CORE 0.005163
K_447 X_NUC_6.L_CORE X_NUC_13.L_CORE 0.006291
K_448 X_NUC_6.L_CORE X_NUC_14.L_CORE 0.006384
K_449 X_NUC_6.L_CORE X_NUC_15.L_CORE 0.006388
K_450 X_NUC_6.L_CORE X_NUC_16.L_CORE 0.006226
K_451 X_NUC_6.L_CORE X_NUC_17.L_CORE 0.007942
K_452 X_NUC_6.L_CORE X_NUC_18.L_CORE 0.007967
K_453 X_NUC_6.L_CORE X_NUC_19.L_CORE 0.007734
K_454 X_NUC_6.L_CORE X_NUC_20.L_CORE 0.008001
K_455 X_NUC_6.L_CORE X_NUC_21.L_CORE 0.003874
K_456 X_NUC_6.L_CORE X_NUC_22.L_CORE 0.003944
K_457 X_NUC_6.L_CORE X_NUC_23.L_CORE 0.003899
K_458 X_NUC_6.L_CORE X_NUC_24.L_CORE 0.003889
K_459 X_NUC_6.L_CORE X_NUC_25.L_CORE 0.007768
K_460 X_NUC_6.L_CORE X_NUC_26.L_CORE 0.007665
K_461 X_NUC_6.L_CORE X_NUC_27.L_CORE 0.007672
K_462 X_NUC_6.L_CORE X_NUC_28.L_CORE 0.007495
K_463 X_NUC_6.L_CORE X_NUC_29.L_CORE 0.004222
K_464 X_NUC_6.L_CORE X_NUC_30.L_CORE 0.004275
K_465 X_NUC_6.L_CORE X_NUC_31.L_CORE 0.004193
K_466 X_NUC_6.L_CORE X_NUC_32.L_CORE 0.004249
K_467 X_NUC_6.L_CORE X_NUC_33.L_CORE 0.003841
K_468 X_NUC_6.L_CORE X_NUC_34.L_CORE 0.003887
K_469 X_NUC_6.L_CORE X_NUC_35.L_CORE 0.003862
K_470 X_NUC_6.L_CORE X_NUC_36.L_CORE 0.003819
K_471 X_NUC_6.L_CORE X_NUC_37.L_CORE 0.006094
K_472 X_NUC_6.L_CORE X_NUC_38.L_CORE 0.006024
K_473 X_NUC_6.L_CORE X_NUC_39.L_CORE 0.005924
K_474 X_NUC_6.L_CORE X_NUC_40.L_CORE 0.005987
K_475 X_NUC_6.L_CORE X_NUC_41.L_CORE 0.003272
K_476 X_NUC_6.L_CORE X_NUC_42.L_CORE 0.003316
K_477 X_NUC_6.L_CORE X_NUC_43.L_CORE 0.003270
K_478 X_NUC_6.L_CORE X_NUC_44.L_CORE 0.003280
K_479 X_NUC_6.L_CORE X_NUC_45.L_CORE 0.004300
K_480 X_NUC_6.L_CORE X_NUC_46.L_CORE 0.004306
K_481 X_NUC_6.L_CORE X_NUC_47.L_CORE 0.004286
K_482 X_NUC_6.L_CORE X_NUC_48.L_CORE 0.004228
K_483 X_NUC_6.L_CORE X_NUC_49.L_CORE 0.003967
K_484 X_NUC_6.L_CORE X_NUC_50.L_CORE 0.003983
K_485 X_NUC_6.L_CORE X_NUC_51.L_CORE 0.003912
K_486 X_NUC_6.L_CORE X_NUC_52.L_CORE 0.003958
K_487 X_NUC_6.L_CORE X_NUC_53.L_CORE 0.003089
K_488 X_NUC_6.L_CORE X_NUC_54.L_CORE 0.003122
K_489 X_NUC_6.L_CORE X_NUC_55.L_CORE 0.003091
K_490 X_NUC_6.L_CORE X_NUC_56.L_CORE 0.003078
K_491 X_NUC_6.L_CORE X_NUC_57.L_CORE 0.004290
K_492 X_NUC_6.L_CORE X_NUC_58.L_CORE 0.004268
K_493 X_NUC_6.L_CORE X_NUC_59.L_CORE 0.004225
K_494 X_NUC_6.L_CORE X_NUC_60.L_CORE 0.004214
K_495 X_NUC_6.L_CORE X_NUC_61.L_CORE 0.003099
K_496 X_NUC_6.L_CORE X_NUC_62.L_CORE 0.003126
K_497 X_NUC_6.L_CORE X_NUC_63.L_CORE 0.003080
K_498 X_NUC_6.L_CORE X_NUC_64.L_CORE 0.003096
K_499 X_NUC_6.L_CORE X_NUC_65.L_CORE 0.003220
K_500 X_NUC_6.L_CORE X_NUC_66.L_CORE 0.003237
K_501 X_NUC_6.L_CORE X_NUC_67.L_CORE 0.003210
K_502 X_NUC_6.L_CORE X_NUC_68.L_CORE 0.003189
K_503 X_NUC_6.L_CORE X_NUC_69.L_CORE 0.003500
K_504 X_NUC_6.L_CORE X_NUC_70.L_CORE 0.003502
K_505 X_NUC_6.L_CORE X_NUC_71.L_CORE 0.003453
K_506 X_NUC_6.L_CORE X_NUC_72.L_CORE 0.003468
K_507 X_NUC_6.L_CORE X_NUC_73.L_CORE 0.002878
K_508 X_NUC_6.L_CORE X_NUC_74.L_CORE 0.002899
K_509 X_NUC_6.L_CORE X_NUC_75.L_CORE 0.002865
K_510 X_NUC_6.L_CORE X_NUC_76.L_CORE 0.002864
K_511 X_NUC_6.L_CORE X_NUC_77.L_CORE 0.003145
K_512 X_NUC_6.L_CORE X_NUC_78.L_CORE 0.003153
K_513 X_NUC_6.L_CORE X_NUC_79.L_CORE 0.003119
K_514 X_NUC_6.L_CORE X_NUC_80.L_CORE 0.003113
K_515 X_NUC_6.L_CORE X_NUC_81.L_CORE 0.005893
K_516 X_NUC_6.L_CORE X_NUC_82.L_CORE 0.021681
K_517 X_NUC_6.L_CORE X_NUC_83.L_CORE 0.004000
K_518 X_NUC_6.L_CORE X_NUC_84.L_CORE 0.004618
K_519 X_NUC_6.L_CORE X_NUC_85.L_CORE 0.005107
K_520 X_NUC_6.L_CORE X_NUC_86.L_CORE 0.003026
K_521 X_NUC_6.L_CORE X_NUC_87.L_CORE 0.004410
K_522 X_NUC_6.L_CORE X_NUC_88.L_CORE 0.003116
K_523 X_NUC_6.L_CORE X_NUC_89.L_CORE 0.002894
K_524 X_NUC_6.L_CORE X_NUC_90.L_CORE 0.003309
K_525 X_NUC_6.L_CORE X_NUC_91.L_CORE 0.002661
K_526 X_NUC_7.L_CORE X_NUC_8.L_CORE 0.207973
K_527 X_NUC_7.L_CORE X_NUC_9.L_CORE 0.005179
K_528 X_NUC_7.L_CORE X_NUC_10.L_CORE 0.005303
K_529 X_NUC_7.L_CORE X_NUC_11.L_CORE 0.005209
K_530 X_NUC_7.L_CORE X_NUC_12.L_CORE 0.005256
K_531 X_NUC_7.L_CORE X_NUC_13.L_CORE 0.006284
K_532 X_NUC_7.L_CORE X_NUC_14.L_CORE 0.006373
K_533 X_NUC_7.L_CORE X_NUC_15.L_CORE 0.006384
K_534 X_NUC_7.L_CORE X_NUC_16.L_CORE 0.006220
K_535 X_NUC_7.L_CORE X_NUC_17.L_CORE 0.008188
K_536 X_NUC_7.L_CORE X_NUC_18.L_CORE 0.008210
K_537 X_NUC_7.L_CORE X_NUC_19.L_CORE 0.007967
K_538 X_NUC_7.L_CORE X_NUC_20.L_CORE 0.008254
K_539 X_NUC_7.L_CORE X_NUC_21.L_CORE 0.003917
K_540 X_NUC_7.L_CORE X_NUC_22.L_CORE 0.003988
K_541 X_NUC_7.L_CORE X_NUC_23.L_CORE 0.003944
K_542 X_NUC_7.L_CORE X_NUC_24.L_CORE 0.003932
K_543 X_NUC_7.L_CORE X_NUC_25.L_CORE 0.007755
K_544 X_NUC_7.L_CORE X_NUC_26.L_CORE 0.007647
K_545 X_NUC_7.L_CORE X_NUC_27.L_CORE 0.007665
K_546 X_NUC_7.L_CORE X_NUC_28.L_CORE 0.007483
K_547 X_NUC_7.L_CORE X_NUC_29.L_CORE 0.004304
K_548 X_NUC_7.L_CORE X_NUC_30.L_CORE 0.004359
K_549 X_NUC_7.L_CORE X_NUC_31.L_CORE 0.004275
K_550 X_NUC_7.L_CORE X_NUC_32.L_CORE 0.004333
K_551 X_NUC_7.L_CORE X_NUC_33.L_CORE 0.003865
K_552 X_NUC_7.L_CORE X_NUC_34.L_CORE 0.003911
K_553 X_NUC_7.L_CORE X_NUC_35.L_CORE 0.003887
K_554 X_NUC_7.L_CORE X_NUC_36.L_CORE 0.003842
K_555 X_NUC_7.L_CORE X_NUC_37.L_CORE 0.006199
K_556 X_NUC_7.L_CORE X_NUC_38.L_CORE 0.006123
K_557 X_NUC_7.L_CORE X_NUC_39.L_CORE 0.006024
K_558 X_NUC_7.L_CORE X_NUC_40.L_CORE 0.006087
K_559 X_NUC_7.L_CORE X_NUC_41.L_CORE 0.003317
K_560 X_NUC_7.L_CORE X_NUC_42.L_CORE 0.003363
K_561 X_NUC_7.L_CORE X_NUC_43.L_CORE 0.003316
K_562 X_NUC_7.L_CORE X_NUC_44.L_CORE 0.003325
K_563 X_NUC_7.L_CORE X_NUC_45.L_CORE 0.004320
K_564 X_NUC_7.L_CORE X_NUC_46.L_CORE 0.004324
K_565 X_NUC_7.L_CORE X_NUC_47.L_CORE 0.004306
K_566 X_NUC_7.L_CORE X_NUC_48.L_CORE 0.004246
K_567 X_NUC_7.L_CORE X_NUC_49.L_CORE 0.004040
K_568 X_NUC_7.L_CORE X_NUC_50.L_CORE 0.004056
K_569 X_NUC_7.L_CORE X_NUC_51.L_CORE 0.003983
K_570 X_NUC_7.L_CORE X_NUC_52.L_CORE 0.004030
K_571 X_NUC_7.L_CORE X_NUC_53.L_CORE 0.003120
K_572 X_NUC_7.L_CORE X_NUC_54.L_CORE 0.003154
K_573 X_NUC_7.L_CORE X_NUC_55.L_CORE 0.003122
K_574 X_NUC_7.L_CORE X_NUC_56.L_CORE 0.003109
K_575 X_NUC_7.L_CORE X_NUC_57.L_CORE 0.004333
K_576 X_NUC_7.L_CORE X_NUC_58.L_CORE 0.004309
K_577 X_NUC_7.L_CORE X_NUC_59.L_CORE 0.004268
K_578 X_NUC_7.L_CORE X_NUC_60.L_CORE 0.004255
K_579 X_NUC_7.L_CORE X_NUC_61.L_CORE 0.003146
K_580 X_NUC_7.L_CORE X_NUC_62.L_CORE 0.003173
K_581 X_NUC_7.L_CORE X_NUC_63.L_CORE 0.003126
K_582 X_NUC_7.L_CORE X_NUC_64.L_CORE 0.003142
K_583 X_NUC_7.L_CORE X_NUC_65.L_CORE 0.003248
K_584 X_NUC_7.L_CORE X_NUC_66.L_CORE 0.003264