* Applied Vacuum Engineering (AVE) - SPICE Netlist
* Element: Antimony-122 (Z=51, A=122)
* Auto-generated topological mutual impedance array
* Nodes: 122



* -----------------------------------------------------------------
* NUCLEON (Baseline 6^3_2 Topological Defect)
* -----------------------------------------------------------------
.SUBCKT NUCLEON IN OUT
L_CORE IN OUT 1uH
C_CORE IN OUT 1pF
.ENDS NUCLEON



* -----------------------------------------------------------------
* MACROSCOPIC TOPOLOGY (Nucleon Array)
* -----------------------------------------------------------------
V_STIM NODE_1 0 AC 1 PULSE(0 100k 10n 1n 1n 50n 100n)

X_NUC_1 NODE_1 0 NUCLEON
X_NUC_2 NODE_2 0 NUCLEON
X_NUC_3 NODE_3 0 NUCLEON
X_NUC_4 NODE_4 0 NUCLEON
X_NUC_5 NODE_5 0 NUCLEON
X_NUC_6 NODE_6 0 NUCLEON
X_NUC_7 NODE_7 0 NUCLEON
X_NUC_8 NODE_8 0 NUCLEON
X_NUC_9 NODE_9 0 NUCLEON
X_NUC_10 NODE_10 0 NUCLEON
X_NUC_11 NODE_11 0 NUCLEON
X_NUC_12 NODE_12 0 NUCLEON
X_NUC_13 NODE_13 0 NUCLEON
X_NUC_14 NODE_14 0 NUCLEON
X_NUC_15 NODE_15 0 NUCLEON
X_NUC_16 NODE_16 0 NUCLEON
X_NUC_17 NODE_17 0 NUCLEON
X_NUC_18 NODE_18 0 NUCLEON
X_NUC_19 NODE_19 0 NUCLEON
X_NUC_20 NODE_20 0 NUCLEON
X_NUC_21 NODE_21 0 NUCLEON
X_NUC_22 NODE_22 0 NUCLEON
X_NUC_23 NODE_23 0 NUCLEON
X_NUC_24 NODE_24 0 NUCLEON
X_NUC_25 NODE_25 0 NUCLEON
X_NUC_26 NODE_26 0 NUCLEON
X_NUC_27 NODE_27 0 NUCLEON
X_NUC_28 NODE_28 0 NUCLEON
X_NUC_29 NODE_29 0 NUCLEON
X_NUC_30 NODE_30 0 NUCLEON
X_NUC_31 NODE_31 0 NUCLEON
X_NUC_32 NODE_32 0 NUCLEON
X_NUC_33 NODE_33 0 NUCLEON
X_NUC_34 NODE_34 0 NUCLEON
X_NUC_35 NODE_35 0 NUCLEON
X_NUC_36 NODE_36 0 NUCLEON
X_NUC_37 NODE_37 0 NUCLEON
X_NUC_38 NODE_38 0 NUCLEON
X_NUC_39 NODE_39 0 NUCLEON
X_NUC_40 NODE_40 0 NUCLEON
X_NUC_41 NODE_41 0 NUCLEON
X_NUC_42 NODE_42 0 NUCLEON
X_NUC_43 NODE_43 0 NUCLEON
X_NUC_44 NODE_44 0 NUCLEON
X_NUC_45 NODE_45 0 NUCLEON
X_NUC_46 NODE_46 0 NUCLEON
X_NUC_47 NODE_47 0 NUCLEON
X_NUC_48 NODE_48 0 NUCLEON
X_NUC_49 NODE_49 0 NUCLEON
X_NUC_50 NODE_50 0 NUCLEON
X_NUC_51 NODE_51 0 NUCLEON
X_NUC_52 NODE_52 0 NUCLEON
X_NUC_53 NODE_53 0 NUCLEON
X_NUC_54 NODE_54 0 NUCLEON
X_NUC_55 NODE_55 0 NUCLEON
X_NUC_56 NODE_56 0 NUCLEON
X_NUC_57 NODE_57 0 NUCLEON
X_NUC_58 NODE_58 0 NUCLEON
X_NUC_59 NODE_59 0 NUCLEON
X_NUC_60 NODE_60 0 NUCLEON
X_NUC_61 NODE_61 0 NUCLEON
X_NUC_62 NODE_62 0 NUCLEON
X_NUC_63 NODE_63 0 NUCLEON
X_NUC_64 NODE_64 0 NUCLEON
X_NUC_65 NODE_65 0 NUCLEON
X_NUC_66 NODE_66 0 NUCLEON
X_NUC_67 NODE_67 0 NUCLEON
X_NUC_68 NODE_68 0 NUCLEON
X_NUC_69 NODE_69 0 NUCLEON
X_NUC_70 NODE_70 0 NUCLEON
X_NUC_71 NODE_71 0 NUCLEON
X_NUC_72 NODE_72 0 NUCLEON
X_NUC_73 NODE_73 0 NUCLEON
X_NUC_74 NODE_74 0 NUCLEON
X_NUC_75 NODE_75 0 NUCLEON
X_NUC_76 NODE_76 0 NUCLEON
X_NUC_77 NODE_77 0 NUCLEON
X_NUC_78 NODE_78 0 NUCLEON
X_NUC_79 NODE_79 0 NUCLEON
X_NUC_80 NODE_80 0 NUCLEON
X_NUC_81 NODE_81 0 NUCLEON
X_NUC_82 NODE_82 0 NUCLEON
X_NUC_83 NODE_83 0 NUCLEON
X_NUC_84 NODE_84 0 NUCLEON
X_NUC_85 NODE_85 0 NUCLEON
X_NUC_86 NODE_86 0 NUCLEON
X_NUC_87 NODE_87 0 NUCLEON
X_NUC_88 NODE_88 0 NUCLEON
X_NUC_89 NODE_89 0 NUCLEON
X_NUC_90 NODE_90 0 NUCLEON
X_NUC_91 NODE_91 0 NUCLEON
X_NUC_92 NODE_92 0 NUCLEON
X_NUC_93 NODE_93 0 NUCLEON
X_NUC_94 NODE_94 0 NUCLEON
X_NUC_95 NODE_95 0 NUCLEON
X_NUC_96 NODE_96 0 NUCLEON
X_NUC_97 NODE_97 0 NUCLEON
X_NUC_98 NODE_98 0 NUCLEON
X_NUC_99 NODE_99 0 NUCLEON
X_NUC_100 NODE_100 0 NUCLEON
X_NUC_101 NODE_101 0 NUCLEON
X_NUC_102 NODE_102 0 NUCLEON
X_NUC_103 NODE_103 0 NUCLEON
X_NUC_104 NODE_104 0 NUCLEON
X_NUC_105 NODE_105 0 NUCLEON
X_NUC_106 NODE_106 0 NUCLEON
X_NUC_107 NODE_107 0 NUCLEON
X_NUC_108 NODE_108 0 NUCLEON
X_NUC_109 NODE_109 0 NUCLEON
X_NUC_110 NODE_110 0 NUCLEON
X_NUC_111 NODE_111 0 NUCLEON
X_NUC_112 NODE_112 0 NUCLEON
X_NUC_113 NODE_113 0 NUCLEON
X_NUC_114 NODE_114 0 NUCLEON
X_NUC_115 NODE_115 0 NUCLEON
X_NUC_116 NODE_116 0 NUCLEON
X_NUC_117 NODE_117 0 NUCLEON
X_NUC_118 NODE_118 0 NUCLEON
X_NUC_119 NODE_119 0 NUCLEON
X_NUC_120 NODE_120 0 NUCLEON
X_NUC_121 NODE_121 0 NUCLEON
X_NUC_122 NODE_122 0 NUCLEON


* -----------------------------------------------------------------
* SPATIAL MUTUAL INDUCTANCE (K-FACTORS)
* -----------------------------------------------------------------
K_1 X_NUC_1.L_CORE X_NUC_2.L_CORE 0.207973
K_2 X_NUC_1.L_CORE X_NUC_3.L_CORE 0.207973
K_3 X_NUC_1.L_CORE X_NUC_4.L_CORE 0.207973
K_4 X_NUC_1.L_CORE X_NUC_5.L_CORE 0.006314
K_5 X_NUC_1.L_CORE X_NUC_6.L_CORE 0.006138
K_6 X_NUC_1.L_CORE X_NUC_7.L_CORE 0.006180
K_7 X_NUC_1.L_CORE X_NUC_8.L_CORE 0.006236
K_8 X_NUC_1.L_CORE X_NUC_9.L_CORE 0.006816
K_9 X_NUC_1.L_CORE X_NUC_10.L_CORE 0.006903
K_10 X_NUC_1.L_CORE X_NUC_11.L_CORE 0.006722
K_11 X_NUC_1.L_CORE X_NUC_12.L_CORE 0.006920
K_12 X_NUC_1.L_CORE X_NUC_13.L_CORE 0.007279
K_13 X_NUC_1.L_CORE X_NUC_14.L_CORE 0.007158
K_14 X_NUC_1.L_CORE X_NUC_15.L_CORE 0.007246
K_15 X_NUC_1.L_CORE X_NUC_16.L_CORE 0.007055
K_16 X_NUC_1.L_CORE X_NUC_17.L_CORE 0.004111
K_17 X_NUC_1.L_CORE X_NUC_18.L_CORE 0.004064
K_18 X_NUC_1.L_CORE X_NUC_19.L_CORE 0.004041
K_19 X_NUC_1.L_CORE X_NUC_20.L_CORE 0.004100
K_20 X_NUC_1.L_CORE X_NUC_21.L_CORE 0.006153
K_21 X_NUC_1.L_CORE X_NUC_22.L_CORE 0.006309
K_22 X_NUC_1.L_CORE X_NUC_23.L_CORE 0.006154
K_23 X_NUC_1.L_CORE X_NUC_24.L_CORE 0.006159
K_24 X_NUC_1.L_CORE X_NUC_25.L_CORE 0.004092
K_25 X_NUC_1.L_CORE X_NUC_26.L_CORE 0.004023
K_26 X_NUC_1.L_CORE X_NUC_27.L_CORE 0.004041
K_27 X_NUC_1.L_CORE X_NUC_28.L_CORE 0.004024
K_28 X_NUC_1.L_CORE X_NUC_29.L_CORE 0.003708
K_29 X_NUC_1.L_CORE X_NUC_30.L_CORE 0.003712
K_30 X_NUC_1.L_CORE X_NUC_31.L_CORE 0.003660
K_31 X_NUC_1.L_CORE X_NUC_32.L_CORE 0.003717
K_32 X_NUC_1.L_CORE X_NUC_33.L_CORE 0.004771
K_33 X_NUC_1.L_CORE X_NUC_34.L_CORE 0.004793
K_34 X_NUC_1.L_CORE X_NUC_35.L_CORE 0.004767
K_35 X_NUC_1.L_CORE X_NUC_36.L_CORE 0.004692
K_36 X_NUC_1.L_CORE X_NUC_37.L_CORE 0.003145
K_37 X_NUC_1.L_CORE X_NUC_38.L_CORE 0.003109
K_38 X_NUC_1.L_CORE X_NUC_39.L_CORE 0.003101
K_39 X_NUC_1.L_CORE X_NUC_40.L_CORE 0.003119
K_40 X_NUC_1.L_CORE X_NUC_41.L_CORE 0.003721
K_41 X_NUC_1.L_CORE X_NUC_42.L_CORE 0.003761
K_42 X_NUC_1.L_CORE X_NUC_43.L_CORE 0.003695
K_43 X_NUC_1.L_CORE X_NUC_44.L_CORE 0.003724
K_44 X_NUC_1.L_CORE X_NUC_45.L_CORE 0.003468
K_45 X_NUC_1.L_CORE X_NUC_46.L_CORE 0.003438
K_46 X_NUC_1.L_CORE X_NUC_47.L_CORE 0.003440
K_47 X_NUC_1.L_CORE X_NUC_48.L_CORE 0.003411
K_48 X_NUC_1.L_CORE X_NUC_49.L_CORE 0.002851
K_49 X_NUC_1.L_CORE X_NUC_50.L_CORE 0.002839
K_50 X_NUC_1.L_CORE X_NUC_51.L_CORE 0.002814
K_51 X_NUC_1.L_CORE X_NUC_52.L_CORE 0.002843
K_52 X_NUC_1.L_CORE X_NUC_53.L_CORE 0.003543
K_53 X_NUC_1.L_CORE X_NUC_54.L_CORE 0.003574
K_54 X_NUC_1.L_CORE X_NUC_55.L_CORE 0.003531
K_55 X_NUC_1.L_CORE X_NUC_56.L_CORE 0.003515
K_56 X_NUC_1.L_CORE X_NUC_57.L_CORE 0.002774
K_57 X_NUC_1.L_CORE X_NUC_58.L_CORE 0.002747
K_58 X_NUC_1.L_CORE X_NUC_59.L_CORE 0.002742
K_59 X_NUC_1.L_CORE X_NUC_60.L_CORE 0.002743
K_60 X_NUC_1.L_CORE X_NUC_61.L_CORE 0.002825
K_61 X_NUC_1.L_CORE X_NUC_62.L_CORE 0.002834
K_62 X_NUC_1.L_CORE X_NUC_63.L_CORE 0.002798
K_63 X_NUC_1.L_CORE X_NUC_64.L_CORE 0.002821
K_64 X_NUC_1.L_CORE X_NUC_65.L_CORE 0.003024
K_65 X_NUC_1.L_CORE X_NUC_66.L_CORE 0.003020
K_66 X_NUC_1.L_CORE X_NUC_67.L_CORE 0.003006
K_67 X_NUC_1.L_CORE X_NUC_68.L_CORE 0.002985
K_68 X_NUC_1.L_CORE X_NUC_69.L_CORE 0.002481
K_69 X_NUC_1.L_CORE X_NUC_70.L_CORE 0.002467
K_70 X_NUC_1.L_CORE X_NUC_71.L_CORE 0.002452
K_71 X_NUC_1.L_CORE X_NUC_72.L_CORE 0.002465
K_72 X_NUC_1.L_CORE X_NUC_73.L_CORE 0.002801
K_73 X_NUC_1.L_CORE X_NUC_74.L_CORE 0.002817
K_74 X_NUC_1.L_CORE X_NUC_75.L_CORE 0.002783
K_75 X_NUC_1.L_CORE X_NUC_76.L_CORE 0.002787
K_76 X_NUC_1.L_CORE X_NUC_77.L_CORE 0.002554
K_77 X_NUC_1.L_CORE X_NUC_78.L_CORE 0.002539
K_78 X_NUC_1.L_CORE X_NUC_79.L_CORE 0.002531
K_79 X_NUC_1.L_CORE X_NUC_80.L_CORE 0.002524
K_80 X_NUC_1.L_CORE X_NUC_81.L_CORE 0.002400
K_81 X_NUC_1.L_CORE X_NUC_82.L_CORE 0.002398
K_82 X_NUC_1.L_CORE X_NUC_83.L_CORE 0.002376
K_83 X_NUC_1.L_CORE X_NUC_84.L_CORE 0.002390
K_84 X_NUC_1.L_CORE X_NUC_85.L_CORE 0.002596
K_85 X_NUC_1.L_CORE X_NUC_86.L_CORE 0.002600
K_86 X_NUC_1.L_CORE X_NUC_87.L_CORE 0.002579
K_87 X_NUC_1.L_CORE X_NUC_88.L_CORE 0.002572
K_88 X_NUC_1.L_CORE X_NUC_89.L_CORE 0.002302
K_89 X_NUC_1.L_CORE X_NUC_90.L_CORE 0.002291
K_90 X_NUC_1.L_CORE X_NUC_91.L_CORE 0.002279
K_91 X_NUC_1.L_CORE X_NUC_92.L_CORE 0.002282
K_92 X_NUC_1.L_CORE X_NUC_93.L_CORE 0.002358
K_93 X_NUC_1.L_CORE X_NUC_94.L_CORE 0.002361
K_94 X_NUC_1.L_CORE X_NUC_95.L_CORE 0.002338
K_95 X_NUC_1.L_CORE X_NUC_96.L_CORE 0.002345
K_96 X_NUC_1.L_CORE X_NUC_97.L_CORE 0.002316
K_97 X_NUC_1.L_CORE X_NUC_98.L_CORE 0.002312
K_98 X_NUC_1.L_CORE X_NUC_99.L_CORE 0.002297
K_99 X_NUC_1.L_CORE X_NUC_100.L_CORE 0.002296
K_100 X_NUC_1.L_CORE X_NUC_101.L_CORE 0.034811
K_101 X_NUC_1.L_CORE X_NUC_102.L_CORE 0.005527
K_102 X_NUC_1.L_CORE X_NUC_103.L_CORE 0.005980
K_103 X_NUC_1.L_CORE X_NUC_104.L_CORE 0.006167
K_104 X_NUC_1.L_CORE X_NUC_105.L_CORE 0.003633
K_105 X_NUC_1.L_CORE X_NUC_106.L_CORE 0.005274
K_106 X_NUC_1.L_CORE X_NUC_107.L_CORE 0.003572
K_107 X_NUC_1.L_CORE X_NUC_108.L_CORE 0.003274
K_108 X_NUC_1.L_CORE X_NUC_109.L_CORE 0.004069
K_109 X_NUC_1.L_CORE X_NUC_110.L_CORE 0.002777
K_110 X_NUC_1.L_CORE X_NUC_111.L_CORE 0.003243
K_111 X_NUC_1.L_CORE X_NUC_112.L_CORE 0.003007
K_112 X_NUC_1.L_CORE X_NUC_113.L_CORE 0.002526
K_113 X_NUC_1.L_CORE X_NUC_114.L_CORE 0.003038
K_114 X_NUC_1.L_CORE X_NUC_115.L_CORE 0.002443
K_115 X_NUC_1.L_CORE X_NUC_116.L_CORE 0.002483
K_116 X_NUC_1.L_CORE X_NUC_117.L_CORE 0.002599
K_117 X_NUC_1.L_CORE X_NUC_118.L_CORE 0.002208
K_118 X_NUC_1.L_CORE X_NUC_119.L_CORE 0.002414
K_119 X_NUC_1.L_CORE X_NUC_120.L_CORE 0.002235
K_120 X_NUC_1.L_CORE X_NUC_121.L_CORE 0.002138
K_121 X_NUC_1.L_CORE X_NUC_122.L_CORE 0.002187
K_122 X_NUC_2.L_CORE X_NUC_3.L_CORE 0.207973
K_123 X_NUC_2.L_CORE X_NUC_4.L_CORE 0.207973
K_124 X_NUC_2.L_CORE X_NUC_5.L_CORE 0.006500
K_125 X_NUC_2.L_CORE X_NUC_6.L_CORE 0.006314
K_126 X_NUC_2.L_CORE X_NUC_7.L_CORE 0.006357
K_127 X_NUC_2.L_CORE X_NUC_8.L_CORE 0.006418
K_128 X_NUC_2.L_CORE X_NUC_9.L_CORE 0.006726
K_129 X_NUC_2.L_CORE X_NUC_10.L_CORE 0.006816
K_130 X_NUC_2.L_CORE X_NUC_11.L_CORE 0.006638
K_131 X_NUC_2.L_CORE X_NUC_12.L_CORE 0.006829
K_132 X_NUC_2.L_CORE X_NUC_13.L_CORE 0.007396
K_133 X_NUC_2.L_CORE X_NUC_14.L_CORE 0.007279
K_134 X_NUC_2.L_CORE X_NUC_15.L_CORE 0.007367
K_135 X_NUC_2.L_CORE X_NUC_16.L_CORE 0.007166
K_136 X_NUC_2.L_CORE X_NUC_17.L_CORE 0.004158
K_137 X_NUC_2.L_CORE X_NUC_18.L_CORE 0.004111
K_138 X_NUC_2.L_CORE X_NUC_19.L_CORE 0.004087
K_139 X_NUC_2.L_CORE X_NUC_20.L_CORE 0.004148
K_140 X_NUC_2.L_CORE X_NUC_21.L_CORE 0.006004
K_141 X_NUC_2.L_CORE X_NUC_22.L_CORE 0.006153
K_142 X_NUC_2.L_CORE X_NUC_23.L_CORE 0.006007
K_143 X_NUC_2.L_CORE X_NUC_24.L_CORE 0.006011
K_144 X_NUC_2.L_CORE X_NUC_25.L_CORE 0.004163
K_145 X_NUC_2.L_CORE X_NUC_26.L_CORE 0.004092
K_146 X_NUC_2.L_CORE X_NUC_27.L_CORE 0.004110
K_147 X_NUC_2.L_CORE X_NUC_28.L_CORE 0.004093
K_148 X_NUC_2.L_CORE X_NUC_29.L_CORE 0.003703
K_149 X_NUC_2.L_CORE X_NUC_30.L_CORE 0.003708
K_150 X_NUC_2.L_CORE X_NUC_31.L_CORE 0.003656
K_151 X_NUC_2.L_CORE X_NUC_32.L_CORE 0.003713
K_152 X_NUC_2.L_CORE X_NUC_33.L_CORE 0.004746
K_153 X_NUC_2.L_CORE X_NUC_34.L_CORE 0.004771
K_154 X_NUC_2.L_CORE X_NUC_35.L_CORE 0.004744
K_155 X_NUC_2.L_CORE X_NUC_36.L_CORE 0.004670
K_156 X_NUC_2.L_CORE X_NUC_37.L_CORE 0.003182
K_157 X_NUC_2.L_CORE X_NUC_38.L_CORE 0.003145
K_158 X_NUC_2.L_CORE X_NUC_39.L_CORE 0.003136
K_159 X_NUC_2.L_CORE X_NUC_40.L_CORE 0.003155
K_160 X_NUC_2.L_CORE X_NUC_41.L_CORE 0.003681
K_161 X_NUC_2.L_CORE X_NUC_42.L_CORE 0.003721
K_162 X_NUC_2.L_CORE X_NUC_43.L_CORE 0.003656
K_163 X_NUC_2.L_CORE X_NUC_44.L_CORE 0.003684
K_164 X_NUC_2.L_CORE X_NUC_45.L_CORE 0.003497
K_165 X_NUC_2.L_CORE X_NUC_46.L_CORE 0.003468
K_166 X_NUC_2.L_CORE X_NUC_47.L_CORE 0.003469
K_167 X_NUC_2.L_CORE X_NUC_48.L_CORE 0.003439
K_168 X_NUC_2.L_CORE X_NUC_49.L_CORE 0.002862
K_169 X_NUC_2.L_CORE X_NUC_50.L_CORE 0.002851
K_170 X_NUC_2.L_CORE X_NUC_51.L_CORE 0.002825
K_171 X_NUC_2.L_CORE X_NUC_52.L_CORE 0.002854
K_172 X_NUC_2.L_CORE X_NUC_53.L_CORE 0.003513
K_173 X_NUC_2.L_CORE X_NUC_54.L_CORE 0.003543
K_174 X_NUC_2.L_CORE X_NUC_55.L_CORE 0.003501
K_175 X_NUC_2.L_CORE X_NUC_56.L_CORE 0.003486
K_176 X_NUC_2.L_CORE X_NUC_57.L_CORE 0.002800
K_177 X_NUC_2.L_CORE X_NUC_58.L_CORE 0.002774
K_178 X_NUC_2.L_CORE X_NUC_59.L_CORE 0.002768
K_179 X_NUC_2.L_CORE X_NUC_60.L_CORE 0.002769
K_180 X_NUC_2.L_CORE X_NUC_61.L_CORE 0.002815
K_181 X_NUC_2.L_CORE X_NUC_62.L_CORE 0.002825
K_182 X_NUC_2.L_CORE X_NUC_63.L_CORE 0.002788
K_183 X_NUC_2.L_CORE X_NUC_64.L_CORE 0.002811
K_184 X_NUC_2.L_CORE X_NUC_65.L_CORE 0.003027
K_185 X_NUC_2.L_CORE X_NUC_66.L_CORE 0.003024
K_186 X_NUC_2.L_CORE X_NUC_67.L_CORE 0.003010
K_187 X_NUC_2.L_CORE X_NUC_68.L_CORE 0.002988
K_188 X_NUC_2.L_CORE X_NUC_69.L_CORE 0.002495
K_189 X_NUC_2.L_CORE X_NUC_70.L_CORE 0.002481
K_190 X_NUC_2.L_CORE X_NUC_71.L_CORE 0.002466
K_191 X_NUC_2.L_CORE X_NUC_72.L_CORE 0.002479
K_192 X_NUC_2.L_CORE X_NUC_73.L_CORE 0.002785
K_193 X_NUC_2.L_CORE X_NUC_74.L_CORE 0.002801
K_194 X_NUC_2.L_CORE X_NUC_75.L_CORE 0.002767
K_195 X_NUC_2.L_CORE X_NUC_76.L_CORE 0.002772
K_196 X_NUC_2.L_CORE X_NUC_77.L_CORE 0.002568
K_197 X_NUC_2.L_CORE X_NUC_78.L_CORE 0.002554
K_198 X_NUC_2.L_CORE X_NUC_79.L_CORE 0.002545
K_199 X_NUC_2.L_CORE X_NUC_80.L_CORE 0.002538
K_200 X_NUC_2.L_CORE X_NUC_81.L_CORE 0.002402
K_201 X_NUC_2.L_CORE X_NUC_82.L_CORE 0.002400
K_202 X_NUC_2.L_CORE X_NUC_83.L_CORE 0.002378
K_203 X_NUC_2.L_CORE X_NUC_84.L_CORE 0.002392
K_204 X_NUC_2.L_CORE X_NUC_85.L_CORE 0.002591
K_205 X_NUC_2.L_CORE X_NUC_86.L_CORE 0.002596
K_206 X_NUC_2.L_CORE X_NUC_87.L_CORE 0.002575
K_207 X_NUC_2.L_CORE X_NUC_88.L_CORE 0.002568
K_208 X_NUC_2.L_CORE X_NUC_89.L_CORE 0.002312
K_209 X_NUC_2.L_CORE X_NUC_90.L_CORE 0.002302
K_210 X_NUC_2.L_CORE X_NUC_91.L_CORE 0.002289
K_211 X_NUC_2.L_CORE X_NUC_92.L_CORE 0.002292
K_212 X_NUC_2.L_CORE X_NUC_93.L_CORE 0.002355
K_213 X_NUC_2.L_CORE X_NUC_94.L_CORE 0.002358
K_214 X_NUC_2.L_CORE X_NUC_95.L_CORE 0.002336
K_215 X_NUC_2.L_CORE X_NUC_96.L_CORE 0.002342
K_216 X_NUC_2.L_CORE X_NUC_97.L_CORE 0.002319
K_217 X_NUC_2.L_CORE X_NUC_98.L_CORE 0.002316
K_218 X_NUC_2.L_CORE X_NUC_99.L_CORE 0.002300
K_219 X_NUC_2.L_CORE X_NUC_100.L_CORE 0.002299
K_220 X_NUC_2.L_CORE X_NUC_101.L_CORE 0.033066
K_221 X_NUC_2.L_CORE X_NUC_102.L_CORE 0.005672
K_222 X_NUC_2.L_CORE X_NUC_103.L_CORE 0.005901
K_223 X_NUC_2.L_CORE X_NUC_104.L_CORE 0.006246
K_224 X_NUC_2.L_CORE X_NUC_105.L_CORE 0.003671
K_225 X_NUC_2.L_CORE X_NUC_106.L_CORE 0.005158
K_226 X_NUC_2.L_CORE X_NUC_107.L_CORE 0.003627
K_227 X_NUC_2.L_CORE X_NUC_108.L_CORE 0.003269
K_228 X_NUC_2.L_CORE X_NUC_109.L_CORE 0.004049
K_229 X_NUC_2.L_CORE X_NUC_110.L_CORE 0.002806
K_230 X_NUC_2.L_CORE X_NUC_111.L_CORE 0.003212
K_231 X_NUC_2.L_CORE X_NUC_112.L_CORE 0.003028
K_232 X_NUC_2.L_CORE X_NUC_113.L_CORE 0.002534
K_233 X_NUC_2.L_CORE X_NUC_114.L_CORE 0.003017
K_234 X_NUC_2.L_CORE X_NUC_115.L_CORE 0.002463
K_235 X_NUC_2.L_CORE X_NUC_116.L_CORE 0.002476
K_236 X_NUC_2.L_CORE X_NUC_117.L_CORE 0.002601
K_237 X_NUC_2.L_CORE X_NUC_118.L_CORE 0.002218
K_238 X_NUC_2.L_CORE X_NUC_119.L_CORE 0.002404
K_239 X_NUC_2.L_CORE X_NUC_120.L_CORE 0.002243
K_240 X_NUC_2.L_CORE X_NUC_121.L_CORE 0.002139
K_241 X_NUC_2.L_CORE X_NUC_122.L_CORE 0.002187
K_242 X_NUC_3.L_CORE X_NUC_4.L_CORE 0.207973
K_243 X_NUC_3.L_CORE X_NUC_5.L_CORE 0.006451
K_244 X_NUC_3.L_CORE X_NUC_6.L_CORE 0.006266
K_245 X_NUC_3.L_CORE X_NUC_7.L_CORE 0.006314
K_246 X_NUC_3.L_CORE X_NUC_8.L_CORE 0.006371
K_247 X_NUC_3.L_CORE X_NUC_9.L_CORE 0.006907
K_248 X_NUC_3.L_CORE X_NUC_10.L_CORE 0.007002
K_249 X_NUC_3.L_CORE X_NUC_11.L_CORE 0.006816
K_250 X_NUC_3.L_CORE X_NUC_12.L_CORE 0.007019
K_251 X_NUC_3.L_CORE X_NUC_13.L_CORE 0.007303
K_252 X_NUC_3.L_CORE X_NUC_14.L_CORE 0.007186
K_253 X_NUC_3.L_CORE X_NUC_15.L_CORE 0.007279
K_254 X_NUC_3.L_CORE X_NUC_16.L_CORE 0.007081
K_255 X_NUC_3.L_CORE X_NUC_17.L_CORE 0.004183
K_256 X_NUC_3.L_CORE X_NUC_18.L_CORE 0.004134
K_257 X_NUC_3.L_CORE X_NUC_19.L_CORE 0.004111
K_258 X_NUC_3.L_CORE X_NUC_20.L_CORE 0.004173
K_259 X_NUC_3.L_CORE X_NUC_21.L_CORE 0.006147
K_260 X_NUC_3.L_CORE X_NUC_22.L_CORE 0.006305
K_261 X_NUC_3.L_CORE X_NUC_23.L_CORE 0.006153
K_262 X_NUC_3.L_CORE X_NUC_24.L_CORE 0.006155
K_263 X_NUC_3.L_CORE X_NUC_25.L_CORE 0.004143
K_264 X_NUC_3.L_CORE X_NUC_26.L_CORE 0.004072
K_265 X_NUC_3.L_CORE X_NUC_27.L_CORE 0.004092
K_266 X_NUC_3.L_CORE X_NUC_28.L_CORE 0.004074
K_267 X_NUC_3.L_CORE X_NUC_29.L_CORE 0.003757
K_268 X_NUC_3.L_CORE X_NUC_30.L_CORE 0.003762
K_269 X_NUC_3.L_CORE X_NUC_31.L_CORE 0.003708
K_270 X_NUC_3.L_CORE X_NUC_32.L_CORE 0.003768
K_271 X_NUC_3.L_CORE X_NUC_33.L_CORE 0.004772
K_272 X_NUC_3.L_CORE X_NUC_34.L_CORE 0.004796
K_273 X_NUC_3.L_CORE X_NUC_35.L_CORE 0.004771
K_274 X_NUC_3.L_CORE X_NUC_36.L_CORE 0.004695
K_275 X_NUC_3.L_CORE X_NUC_37.L_CORE 0.003190
K_276 X_NUC_3.L_CORE X_NUC_38.L_CORE 0.003153
K_277 X_NUC_3.L_CORE X_NUC_39.L_CORE 0.003145
K_278 X_NUC_3.L_CORE X_NUC_40.L_CORE 0.003164
K_279 X_NUC_3.L_CORE X_NUC_41.L_CORE 0.003746
K_280 X_NUC_3.L_CORE X_NUC_42.L_CORE 0.003788
K_281 X_NUC_3.L_CORE X_NUC_43.L_CORE 0.003721
K_282 X_NUC_3.L_CORE X_NUC_44.L_CORE 0.003750
K_283 X_NUC_3.L_CORE X_NUC_45.L_CORE 0.003495
K_284 X_NUC_3.L_CORE X_NUC_46.L_CORE 0.003465
K_285 X_NUC_3.L_CORE X_NUC_47.L_CORE 0.003468
K_286 X_NUC_3.L_CORE X_NUC_48.L_CORE 0.003437
K_287 X_NUC_3.L_CORE X_NUC_49.L_CORE 0.002888
K_288 X_NUC_3.L_CORE X_NUC_50.L_CORE 0.002877
K_289 X_NUC_3.L_CORE X_NUC_51.L_CORE 0.002851
K_290 X_NUC_3.L_CORE X_NUC_52.L_CORE 0.002880
K_291 X_NUC_3.L_CORE X_NUC_53.L_CORE 0.003555
K_292 X_NUC_3.L_CORE X_NUC_54.L_CORE 0.003586
K_293 X_NUC_3.L_CORE X_NUC_55.L_CORE 0.003543
K_294 X_NUC_3.L_CORE X_NUC_56.L_CORE 0.003527
K_295 X_NUC_3.L_CORE X_NUC_57.L_CORE 0.002806
K_296 X_NUC_3.L_CORE X_NUC_58.L_CORE 0.002778
K_297 X_NUC_3.L_CORE X_NUC_59.L_CORE 0.002774
K_298 X_NUC_3.L_CORE X_NUC_60.L_CORE 0.002774
K_299 X_NUC_3.L_CORE X_NUC_61.L_CORE 0.002852
K_300 X_NUC_3.L_CORE X_NUC_62.L_CORE 0.002862
K_301 X_NUC_3.L_CORE X_NUC_63.L_CORE 0.002825
K_302 X_NUC_3.L_CORE X_NUC_64.L_CORE 0.002848
K_303 X_NUC_3.L_CORE X_NUC_65.L_CORE 0.003041
K_304 X_NUC_3.L_CORE X_NUC_66.L_CORE 0.003037
K_305 X_NUC_3.L_CORE X_NUC_67.L_CORE 0.003024
K_306 X_NUC_3.L_CORE X_NUC_68.L_CORE 0.003002
K_307 X_NUC_3.L_CORE X_NUC_69.L_CORE 0.002511
K_308 X_NUC_3.L_CORE X_NUC_70.L_CORE 0.002496
K_309 X_NUC_3.L_CORE X_NUC_71.L_CORE 0.002481
K_310 X_NUC_3.L_CORE X_NUC_72.L_CORE 0.002494
K_311 X_NUC_3.L_CORE X_NUC_73.L_CORE 0.002819
K_312 X_NUC_3.L_CORE X_NUC_74.L_CORE 0.002836
K_313 X_NUC_3.L_CORE X_NUC_75.L_CORE 0.002801
K_314 X_NUC_3.L_CORE X_NUC_76.L_CORE 0.002806
K_315 X_NUC_3.L_CORE X_NUC_77.L_CORE 0.002577
K_316 X_NUC_3.L_CORE X_NUC_78.L_CORE 0.002562
K_317 X_NUC_3.L_CORE X_NUC_79.L_CORE 0.002554
K_318 X_NUC_3.L_CORE X_NUC_80.L_CORE 0.002547
K_319 X_NUC_3.L_CORE X_NUC_81.L_CORE 0.002426
K_320 X_NUC_3.L_CORE X_NUC_82.L_CORE 0.002424
K_321 X_NUC_3.L_CORE X_NUC_83.L_CORE 0.002400
K_322 X_NUC_3.L_CORE X_NUC_84.L_CORE 0.002415
K_323 X_NUC_3.L_CORE X_NUC_85.L_CORE 0.002612
K_324 X_NUC_3.L_CORE X_NUC_86.L_CORE 0.002617
K_325 X_NUC_3.L_CORE X_NUC_87.L_CORE 0.002596
K_326 X_NUC_3.L_CORE X_NUC_88.L_CORE 0.002589
K_327 X_NUC_3.L_CORE X_NUC_89.L_CORE 0.002325
K_328 X_NUC_3.L_CORE X_NUC_90.L_CORE 0.002315
K_329 X_NUC_3.L_CORE X_NUC_91.L_CORE 0.002302
K_330 X_NUC_3.L_CORE X_NUC_92.L_CORE 0.002306
K_331 X_NUC_3.L_CORE X_NUC_93.L_CORE 0.002378
K_332 X_NUC_3.L_CORE X_NUC_94.L_CORE 0.002381
K_333 X_NUC_3.L_CORE X_NUC_95.L_CORE 0.002358
K_334 X_NUC_3.L_CORE X_NUC_96.L_CORE 0.002364
K_335 X_NUC_3.L_CORE X_NUC_97.L_CORE 0.002335
K_336 X_NUC_3.L_CORE X_NUC_98.L_CORE 0.002332
K_337 X_NUC_3.L_CORE X_NUC_99.L_CORE 0.002316
K_338 X_NUC_3.L_CORE X_NUC_100.L_CORE 0.002315
K_339 X_NUC_3.L_CORE X_NUC_101.L_CORE 0.030083
K_340 X_NUC_3.L_CORE X_NUC_102.L_CORE 0.005616
K_341 X_NUC_3.L_CORE X_NUC_103.L_CORE 0.006029
K_342 X_NUC_3.L_CORE X_NUC_104.L_CORE 0.006160
K_343 X_NUC_3.L_CORE X_NUC_105.L_CORE 0.003688
K_344 X_NUC_3.L_CORE X_NUC_106.L_CORE 0.005256
K_345 X_NUC_3.L_CORE X_NUC_107.L_CORE 0.003608
K_346 X_NUC_3.L_CORE X_NUC_108.L_CORE 0.003311
K_347 X_NUC_3.L_CORE X_NUC_109.L_CORE 0.004066
K_348 X_NUC_3.L_CORE X_NUC_110.L_CORE 0.002812
K_349 X_NUC_3.L_CORE X_NUC_111.L_CORE 0.003261
K_350 X_NUC_3.L_CORE X_NUC_112.L_CORE 0.003026
K_351 X_NUC_3.L_CORE X_NUC_113.L_CORE 0.002555
K_352 X_NUC_3.L_CORE X_NUC_114.L_CORE 0.003047
K_353 X_NUC_3.L_CORE X_NUC_115.L_CORE 0.002468
K_354 X_NUC_3.L_CORE X_NUC_116.L_CORE 0.002505
K_355 X_NUC_3.L_CORE X_NUC_117.L_CORE 0.002613
K_356 X_NUC_3.L_CORE X_NUC_118.L_CORE 0.002231
K_357 X_NUC_3.L_CORE X_NUC_119.L_CORE 0.002429
K_358 X_NUC_3.L_CORE X_NUC_120.L_CORE 0.002253
K_359 X_NUC_3.L_CORE X_NUC_121.L_CORE 0.002157
K_360 X_NUC_3.L_CORE X_NUC_122.L_CORE 0.002203
K_361 X_NUC_4.L_CORE X_NUC_5.L_CORE 0.006389
K_362 X_NUC_4.L_CORE X_NUC_6.L_CORE 0.006209
K_363 X_NUC_4.L_CORE X_NUC_7.L_CORE 0.006253
K_364 X_NUC_4.L_CORE X_NUC_8.L_CORE 0.006314
K_365 X_NUC_4.L_CORE X_NUC_9.L_CORE 0.006710
K_366 X_NUC_4.L_CORE X_NUC_10.L_CORE 0.006797
K_367 X_NUC_4.L_CORE X_NUC_11.L_CORE 0.006623
K_368 X_NUC_4.L_CORE X_NUC_12.L_CORE 0.006816
K_369 X_NUC_4.L_CORE X_NUC_13.L_CORE 0.007516
K_370 X_NUC_4.L_CORE X_NUC_14.L_CORE 0.007388
K_371 X_NUC_4.L_CORE X_NUC_15.L_CORE 0.007485
K_372 X_NUC_4.L_CORE X_NUC_16.L_CORE 0.007279
K_373 X_NUC_4.L_CORE X_NUC_17.L_CORE 0.004120
K_374 X_NUC_4.L_CORE X_NUC_18.L_CORE 0.004073
K_375 X_NUC_4.L_CORE X_NUC_19.L_CORE 0.004050
K_376 X_NUC_4.L_CORE X_NUC_20.L_CORE 0.004111
K_377 X_NUC_4.L_CORE X_NUC_21.L_CORE 0.006143
K_378 X_NUC_4.L_CORE X_NUC_22.L_CORE 0.006300
K_379 X_NUC_4.L_CORE X_NUC_23.L_CORE 0.006146
K_380 X_NUC_4.L_CORE X_NUC_24.L_CORE 0.006153
K_381 X_NUC_4.L_CORE X_NUC_25.L_CORE 0.004162
K_382 X_NUC_4.L_CORE X_NUC_26.L_CORE 0.004090
K_383 X_NUC_4.L_CORE X_NUC_27.L_CORE 0.004109
K_384 X_NUC_4.L_CORE X_NUC_28.L_CORE 0.004092
K_385 X_NUC_4.L_CORE X_NUC_29.L_CORE 0.003698
K_386 X_NUC_4.L_CORE X_NUC_30.L_CORE 0.003702
K_387 X_NUC_4.L_CORE X_NUC_31.L_CORE 0.003651
K_388 X_NUC_4.L_CORE X_NUC_32.L_CORE 0.003708
K_389 X_NUC_4.L_CORE X_NUC_33.L_CORE 0.004851
K_390 X_NUC_4.L_CORE X_NUC_34.L_CORE 0.004876
K_391 X_NUC_4.L_CORE X_NUC_35.L_CORE 0.004848
K_392 X_NUC_4.L_CORE X_NUC_36.L_CORE 0.004771
K_393 X_NUC_4.L_CORE X_NUC_37.L_CORE 0.003171
K_394 X_NUC_4.L_CORE X_NUC_38.L_CORE 0.003134
K_395 X_NUC_4.L_CORE X_NUC_39.L_CORE 0.003126
K_396 X_NUC_4.L_CORE X_NUC_40.L_CORE 0.003145
K_397 X_NUC_4.L_CORE X_NUC_41.L_CORE 0.003717
K_398 X_NUC_4.L_CORE X_NUC_42.L_CORE 0.003757
K_399 X_NUC_4.L_CORE X_NUC_43.L_CORE 0.003691
K_400 X_NUC_4.L_CORE X_NUC_44.L_CORE 0.003721
K_401 X_NUC_4.L_CORE X_NUC_45.L_CORE 0.003526
K_402 X_NUC_4.L_CORE X_NUC_46.L_CORE 0.003496
K_403 X_NUC_4.L_CORE X_NUC_47.L_CORE 0.003498
K_404 X_NUC_4.L_CORE X_NUC_48.L_CORE 0.003468
K_405 X_NUC_4.L_CORE X_NUC_49.L_CORE 0.002859
K_406 X_NUC_4.L_CORE X_NUC_50.L_CORE 0.002847
K_407 X_NUC_4.L_CORE X_NUC_51.L_CORE 0.002822
K_408 X_NUC_4.L_CORE X_NUC_52.L_CORE 0.002851
K_409 X_NUC_4.L_CORE X_NUC_53.L_CORE 0.003571
K_410 X_NUC_4.L_CORE X_NUC_54.L_CORE 0.003603
K_411 X_NUC_4.L_CORE X_NUC_55.L_CORE 0.003559
K_412 X_NUC_4.L_CORE X_NUC_56.L_CORE 0.003543
K_413 X_NUC_4.L_CORE X_NUC_57.L_CORE 0.002805
K_414 X_NUC_4.L_CORE X_NUC_58.L_CORE 0.002778
K_415 X_NUC_4.L_CORE X_NUC_59.L_CORE 0.002773
K_416 X_NUC_4.L_CORE X_NUC_60.L_CORE 0.002774
K_417 X_NUC_4.L_CORE X_NUC_61.L_CORE 0.002829
K_418 X_NUC_4.L_CORE X_NUC_62.L_CORE 0.002838
K_419 X_NUC_4.L_CORE X_NUC_63.L_CORE 0.002802
K_420 X_NUC_4.L_CORE X_NUC_64.L_CORE 0.002825
K_421 X_NUC_4.L_CORE X_NUC_65.L_CORE 0.003064
K_422 X_NUC_4.L_CORE X_NUC_66.L_CORE 0.003060
K_423 X_NUC_4.L_CORE X_NUC_67.L_CORE 0.003046
K_424 X_NUC_4.L_CORE X_NUC_68.L_CORE 0.003024
K_425 X_NUC_4.L_CORE X_NUC_69.L_CORE 0.002497
K_426 X_NUC_4.L_CORE X_NUC_70.L_CORE 0.002483
K_427 X_NUC_4.L_CORE X_NUC_71.L_CORE 0.002468
K_428 X_NUC_4.L_CORE X_NUC_72.L_CORE 0.002481
K_429 X_NUC_4.L_CORE X_NUC_73.L_CORE 0.002815
K_430 X_NUC_4.L_CORE X_NUC_74.L_CORE 0.002831
K_431 X_NUC_4.L_CORE X_NUC_75.L_CORE 0.002796
K_432 X_NUC_4.L_CORE X_NUC_76.L_CORE 0.002801
K_433 X_NUC_4.L_CORE X_NUC_77.L_CORE 0.002584
K_434 X_NUC_4.L_CORE X_NUC_78.L_CORE 0.002569
K_435 X_NUC_4.L_CORE X_NUC_79.L_CORE 0.002560
K_436 X_NUC_4.L_CORE X_NUC_80.L_CORE 0.002554
K_437 X_NUC_4.L_CORE X_NUC_81.L_CORE 0.002411
K_438 X_NUC_4.L_CORE X_NUC_82.L_CORE 0.002409
K_439 X_NUC_4.L_CORE X_NUC_83.L_CORE 0.002386
K_440 X_NUC_4.L_CORE X_NUC_84.L_CORE 0.002400
K_441 X_NUC_4.L_CORE X_NUC_85.L_CORE 0.002619
K_442 X_NUC_4.L_CORE X_NUC_86.L_CORE 0.002624
K_443 X_NUC_4.L_CORE X_NUC_87.L_CORE 0.002602
K_444 X_NUC_4.L_CORE X_NUC_88.L_CORE 0.002596
K_445 X_NUC_4.L_CORE X_NUC_89.L_CORE 0.002321
K_446 X_NUC_4.L_CORE X_NUC_90.L_CORE 0.002311
K_447 X_NUC_4.L_CORE X_NUC_91.L_CORE 0.002298
K_448 X_NUC_4.L_CORE X_NUC_92.L_CORE 0.002302
K_449 X_NUC_4.L_CORE X_NUC_93.L_CORE 0.002372
K_450 X_NUC_4.L_CORE X_NUC_94.L_CORE 0.002375
K_451 X_NUC_4.L_CORE X_NUC_95.L_CORE 0.002352
K_452 X_NUC_4.L_CORE X_NUC_96.L_CORE 0.002358
K_453 X_NUC_4.L_CORE X_NUC_97.L_CORE 0.002336
K_454 X_NUC_4.L_CORE X_NUC_98.L_CORE 0.002333
K_455 X_NUC_4.L_CORE X_NUC_99.L_CORE 0.002317
K_456 X_NUC_4.L_CORE X_NUC_100.L_CORE 0.002316
K_457 X_NUC_4.L_CORE X_NUC_101.L_CORE 0.031379
K_458 X_NUC_4.L_CORE X_NUC_102.L_CORE 0.005574
K_459 X_NUC_4.L_CORE X_NUC_103.L_CORE 0.005880
K_460 X_NUC_4.L_CORE X_NUC_104.L_CORE 0.006323
K_461 X_NUC_4.L_CORE X_NUC_105.L_CORE 0.003638
K_462 X_NUC_4.L_CORE X_NUC_106.L_CORE 0.005258
K_463 X_NUC_4.L_CORE X_NUC_107.L_CORE 0.003625
K_464 X_NUC_4.L_CORE X_NUC_108.L_CORE 0.003265
K_465 X_NUC_4.L_CORE X_NUC_109.L_CORE 0.004125
K_466 X_NUC_4.L_CORE X_NUC_110.L_CORE 0.002797
K_467 X_NUC_4.L_CORE X_NUC_111.L_CORE 0.003240
K_468 X_NUC_4.L_CORE X_NUC_112.L_CORE 0.003051
K_469 X_NUC_4.L_CORE X_NUC_113.L_CORE 0.002532
K_470 X_NUC_4.L_CORE X_NUC_114.L_CORE 0.003059
K_471 X_NUC_4.L_CORE X_NUC_115.L_CORE 0.002468
K_472 X_NUC_4.L_CORE X_NUC_116.L_CORE 0.002488
K_473 X_NUC_4.L_CORE X_NUC_117.L_CORE 0.002628
K_474 X_NUC_4.L_CORE X_NUC_118.L_CORE 0.002222
K_475 X_NUC_4.L_CORE X_NUC_119.L_CORE 0.002426
K_476 X_NUC_4.L_CORE X_NUC_120.L_CORE 0.002256
K_477 X_NUC_4.L_CORE X_NUC_121.L_CORE 0.002149
K_478 X_NUC_4.L_CORE X_NUC_122.L_CORE 0.002204
K_479 X_NUC_5.L_CORE X_NUC_6.L_CORE 0.207973
K_480 X_NUC_5.L_CORE X_NUC_7.L_CORE 0.207973
K_481 X_NUC_5.L_CORE X_NUC_8.L_CORE 0.207973
K_482 X_NUC_5.L_CORE X_NUC_9.L_CORE 0.004466
K_483 X_NUC_5.L_CORE X_NUC_10.L_CORE 0.004557
K_484 X_NUC_5.L_CORE X_NUC_11.L_CORE 0.004487
K_485 X_NUC_5.L_CORE X_NUC_12.L_CORE 0.004523
K_486 X_NUC_5.L_CORE X_NUC_13.L_CORE 0.005469
K_487 X_NUC_5.L_CORE X_NUC_14.L_CORE 0.005535
K_488 X_NUC_5.L_CORE X_NUC_15.L_CORE 0.005544
K_489 X_NUC_5.L_CORE X_NUC_16.L_CORE 0.005420
K_490 X_NUC_5.L_CORE X_NUC_17.L_CORE 0.006857
K_491 X_NUC_5.L_CORE X_NUC_18.L_CORE 0.006865
K_492 X_NUC_5.L_CORE X_NUC_19.L_CORE 0.006701
K_493 X_NUC_5.L_CORE X_NUC_20.L_CORE 0.006906
K_494 X_NUC_5.L_CORE X_NUC_21.L_CORE 0.003359
K_495 X_NUC_5.L_CORE X_NUC_22.L_CORE 0.003412
K_496 X_NUC_5.L_CORE X_NUC_23.L_CORE 0.003380
K_497 X_NUC_5.L_CORE X_NUC_24.L_CORE 0.003372
K_498 X_NUC_5.L_CORE X_NUC_25.L_CORE 0.006684
K_499 X_NUC_5.L_CORE X_NUC_26.L_CORE 0.006591
K_500 X_NUC_5.L_CORE X_NUC_27.L_CORE 0.006619
K_501 X_NUC_5.L_CORE X_NUC_28.L_CORE 0.006481
K_502 X_NUC_5.L_CORE X_NUC_29.L_CORE 0.003643
K_503 X_NUC_5.L_CORE X_NUC_30.L_CORE 0.003681
K_504 X_NUC_5.L_CORE X_NUC_31.L_CORE 0.003622
K_505 X_NUC_5.L_CORE X_NUC_32.L_CORE 0.003666
K_506 X_NUC_5.L_CORE X_NUC_33.L_CORE 0.003302
K_507 X_NUC_5.L_CORE X_NUC_34.L_CORE 0.003336
K_508 X_NUC_5.L_CORE X_NUC_35.L_CORE 0.003321
K_509 X_NUC_5.L_CORE X_NUC_36.L_CORE 0.003287
K_510 X_NUC_5.L_CORE X_NUC_37.L_CORE 0.005328
K_511 X_NUC_5.L_CORE X_NUC_38.L_CORE 0.005259
K_512 X_NUC_5.L_CORE X_NUC_39.L_CORE 0.005195
K_513 X_NUC_5.L_CORE X_NUC_40.L_CORE 0.005249
K_514 X_NUC_5.L_CORE X_NUC_41.L_CORE 0.002795
K_515 X_NUC_5.L_CORE X_NUC_42.L_CORE 0.002828
K_516 X_NUC_5.L_CORE X_NUC_43.L_CORE 0.002795
K_517 X_NUC_5.L_CORE X_NUC_44.L_CORE 0.002803
K_518 X_NUC_5.L_CORE X_NUC_45.L_CORE 0.003722
K_519 X_NUC_5.L_CORE X_NUC_46.L_CORE 0.003722
K_520 X_NUC_5.L_CORE X_NUC_47.L_CORE 0.003715
K_521 X_NUC_5.L_CORE X_NUC_48.L_CORE 0.003667
K_522 X_NUC_5.L_CORE X_NUC_49.L_CORE 0.003431
K_523 X_NUC_5.L_CORE X_NUC_50.L_CORE 0.003440
K_524 X_NUC_5.L_CORE X_NUC_51.L_CORE 0.003388
K_525 X_NUC_5.L_CORE X_NUC_52.L_CORE 0.003429
K_526 X_NUC_5.L_CORE X_NUC_53.L_CORE 0.002612
K_527 X_NUC_5.L_CORE X_NUC_54.L_CORE 0.002637
K_528 X_NUC_5.L_CORE X_NUC_55.L_CORE 0.002617
K_529 X_NUC_5.L_CORE X_NUC_56.L_CORE 0.002606
K_530 X_NUC_5.L_CORE X_NUC_57.L_CORE 0.003845
K_531 X_NUC_5.L_CORE X_NUC_58.L_CORE 0.003815
K_532 X_NUC_5.L_CORE X_NUC_59.L_CORE 0.003792
K_533 X_NUC_5.L_CORE X_NUC_60.L_CORE 0.003781
K_534 X_NUC_5.L_CORE X_NUC_61.L_CORE 0.002615
K_535 X_NUC_5.L_CORE X_NUC_62.L_CORE 0.002636
K_536 X_NUC_5.L_CORE X_NUC_63.L_CORE 0.002603
K_537 X_NUC_5.L_CORE X_NUC_64.L_CORE 0.002617
K_538 X_NUC_5.L_CORE X_NUC_65.L_CORE 0.002746
K_539 X_NUC_5.L_CORE X_NUC_66.L_CORE 0.002758
K_540 X_NUC_5.L_CORE X_NUC_67.L_CORE 0.002743
K_541 X_NUC_5.L_CORE X_NUC_68.L_CORE 0.002722
K_542 X_NUC_5.L_CORE X_NUC_69.L_CORE 0.003148
K_543 X_NUC_5.L_CORE X_NUC_70.L_CORE 0.003141
K_544 X_NUC_5.L_CORE X_NUC_71.L_CORE 0.003105
K_545 X_NUC_5.L_CORE X_NUC_72.L_CORE 0.003124
K_546 X_NUC_5.L_CORE X_NUC_73.L_CORE 0.002343
K_547 X_NUC_5.L_CORE X_NUC_74.L_CORE 0.002362
K_548 X_NUC_5.L_CORE X_NUC_75.L_CORE 0.002339
K_549 X_NUC_5.L_CORE X_NUC_76.L_CORE 0.002339
K_550 X_NUC_5.L_CORE X_NUC_77.L_CORE 0.002884
K_551 X_NUC_5.L_CORE X_NUC_78.L_CORE 0.002880
K_552 X_NUC_5.L_CORE X_NUC_79.L_CORE 0.002864
K_553 X_NUC_5.L_CORE X_NUC_80.L_CORE 0.002849
K_554 X_NUC_5.L_CORE X_NUC_81.L_CORE 0.002528
K_555 X_NUC_5.L_CORE X_NUC_82.L_CORE 0.002537
K_556 X_NUC_5.L_CORE X_NUC_83.L_CORE 0.002508
K_557 X_NUC_5.L_CORE X_NUC_84.L_CORE 0.002520
K_558 X_NUC_5.L_CORE X_NUC_85.L_CORE 0.002339
K_559 X_NUC_5.L_CORE X_NUC_86.L_CORE 0.002352
K_560 X_NUC_5.L_CORE X_NUC_87.L_CORE 0.002334
K_561 X_NUC_5.L_CORE X_NUC_88.L_CORE 0.002326
K_562 X_NUC_5.L_CORE X_NUC_89.L_CORE 0.002665
K_563 X_NUC_5.L_CORE X_NUC_90.L_CORE 0.002663