* Applied Vacuum Engineering (AVE) - SPICE Netlist
* Element: Cobalt-59 (Z=27, A=59)
* Auto-generated topological mutual impedance array
* Nodes: 59



* -----------------------------------------------------------------
* NUCLEON (Baseline 6^3_2 Topological Defect)
* -----------------------------------------------------------------
.SUBCKT NUCLEON IN OUT
L_CORE IN OUT 1uH
C_CORE IN OUT 1pF
.ENDS NUCLEON



* -----------------------------------------------------------------
* MACROSCOPIC TOPOLOGY (Nucleon Array)
* -----------------------------------------------------------------
V_STIM NODE_1 0 AC 1 PULSE(0 100k 10n 1n 1n 50n 100n)

X_NUC_1 NODE_1 0 NUCLEON
X_NUC_2 NODE_2 0 NUCLEON
X_NUC_3 NODE_3 0 NUCLEON
X_NUC_4 NODE_4 0 NUCLEON
X_NUC_5 NODE_5 0 NUCLEON
X_NUC_6 NODE_6 0 NUCLEON
X_NUC_7 NODE_7 0 NUCLEON
X_NUC_8 NODE_8 0 NUCLEON
X_NUC_9 NODE_9 0 NUCLEON
X_NUC_10 NODE_10 0 NUCLEON
X_NUC_11 NODE_11 0 NUCLEON
X_NUC_12 NODE_12 0 NUCLEON
X_NUC_13 NODE_13 0 NUCLEON
X_NUC_14 NODE_14 0 NUCLEON
X_NUC_15 NODE_15 0 NUCLEON
X_NUC_16 NODE_16 0 NUCLEON
X_NUC_17 NODE_17 0 NUCLEON
X_NUC_18 NODE_18 0 NUCLEON
X_NUC_19 NODE_19 0 NUCLEON
X_NUC_20 NODE_20 0 NUCLEON
X_NUC_21 NODE_21 0 NUCLEON
X_NUC_22 NODE_22 0 NUCLEON
X_NUC_23 NODE_23 0 NUCLEON
X_NUC_24 NODE_24 0 NUCLEON
X_NUC_25 NODE_25 0 NUCLEON
X_NUC_26 NODE_26 0 NUCLEON
X_NUC_27 NODE_27 0 NUCLEON
X_NUC_28 NODE_28 0 NUCLEON
X_NUC_29 NODE_29 0 NUCLEON
X_NUC_30 NODE_30 0 NUCLEON
X_NUC_31 NODE_31 0 NUCLEON
X_NUC_32 NODE_32 0 NUCLEON
X_NUC_33 NODE_33 0 NUCLEON
X_NUC_34 NODE_34 0 NUCLEON
X_NUC_35 NODE_35 0 NUCLEON
X_NUC_36 NODE_36 0 NUCLEON
X_NUC_37 NODE_37 0 NUCLEON
X_NUC_38 NODE_38 0 NUCLEON
X_NUC_39 NODE_39 0 NUCLEON
X_NUC_40 NODE_40 0 NUCLEON
X_NUC_41 NODE_41 0 NUCLEON
X_NUC_42 NODE_42 0 NUCLEON
X_NUC_43 NODE_43 0 NUCLEON
X_NUC_44 NODE_44 0 NUCLEON
X_NUC_45 NODE_45 0 NUCLEON
X_NUC_46 NODE_46 0 NUCLEON
X_NUC_47 NODE_47 0 NUCLEON
X_NUC_48 NODE_48 0 NUCLEON
X_NUC_49 NODE_49 0 NUCLEON
X_NUC_50 NODE_50 0 NUCLEON
X_NUC_51 NODE_51 0 NUCLEON
X_NUC_52 NODE_52 0 NUCLEON
X_NUC_53 NODE_53 0 NUCLEON
X_NUC_54 NODE_54 0 NUCLEON
X_NUC_55 NODE_55 0 NUCLEON
X_NUC_56 NODE_56 0 NUCLEON
X_NUC_57 NODE_57 0 NUCLEON
X_NUC_58 NODE_58 0 NUCLEON
X_NUC_59 NODE_59 0 NUCLEON


* -----------------------------------------------------------------
* SPATIAL MUTUAL INDUCTANCE (K-FACTORS)
* -----------------------------------------------------------------
K_1 X_NUC_1.L_CORE X_NUC_2.L_CORE 0.207973
K_2 X_NUC_1.L_CORE X_NUC_3.L_CORE 0.207973
K_3 X_NUC_1.L_CORE X_NUC_4.L_CORE 0.207973
K_4 X_NUC_1.L_CORE X_NUC_5.L_CORE 0.008529
K_5 X_NUC_1.L_CORE X_NUC_6.L_CORE 0.008212
K_6 X_NUC_1.L_CORE X_NUC_7.L_CORE 0.008276
K_7 X_NUC_1.L_CORE X_NUC_8.L_CORE 0.008377
K_8 X_NUC_1.L_CORE X_NUC_9.L_CORE 0.009194
K_9 X_NUC_1.L_CORE X_NUC_10.L_CORE 0.009338
K_10 X_NUC_1.L_CORE X_NUC_11.L_CORE 0.008993
K_11 X_NUC_1.L_CORE X_NUC_12.L_CORE 0.009341
K_12 X_NUC_1.L_CORE X_NUC_13.L_CORE 0.009672
K_13 X_NUC_1.L_CORE X_NUC_14.L_CORE 0.009464
K_14 X_NUC_1.L_CORE X_NUC_15.L_CORE 0.009550
K_15 X_NUC_1.L_CORE X_NUC_16.L_CORE 0.009257
K_16 X_NUC_1.L_CORE X_NUC_17.L_CORE 0.005643
K_17 X_NUC_1.L_CORE X_NUC_18.L_CORE 0.005557
K_18 X_NUC_1.L_CORE X_NUC_19.L_CORE 0.005503
K_19 X_NUC_1.L_CORE X_NUC_20.L_CORE 0.005608
K_20 X_NUC_1.L_CORE X_NUC_21.L_CORE 0.007986
K_21 X_NUC_1.L_CORE X_NUC_22.L_CORE 0.008193
K_22 X_NUC_1.L_CORE X_NUC_23.L_CORE 0.007915
K_23 X_NUC_1.L_CORE X_NUC_24.L_CORE 0.007931
K_24 X_NUC_1.L_CORE X_NUC_25.L_CORE 0.005582
K_25 X_NUC_1.L_CORE X_NUC_26.L_CORE 0.005469
K_26 X_NUC_1.L_CORE X_NUC_27.L_CORE 0.005472
K_27 X_NUC_1.L_CORE X_NUC_28.L_CORE 0.005450
K_28 X_NUC_1.L_CORE X_NUC_29.L_CORE 0.005101
K_29 X_NUC_1.L_CORE X_NUC_30.L_CORE 0.005101
K_30 X_NUC_1.L_CORE X_NUC_31.L_CORE 0.004998
K_31 X_NUC_1.L_CORE X_NUC_32.L_CORE 0.005089
K_32 X_NUC_1.L_CORE X_NUC_33.L_CORE 0.006037
K_33 X_NUC_1.L_CORE X_NUC_34.L_CORE 0.006051
K_34 X_NUC_1.L_CORE X_NUC_35.L_CORE 0.005971
K_35 X_NUC_1.L_CORE X_NUC_36.L_CORE 0.005899
K_36 X_NUC_1.L_CORE X_NUC_37.L_CORE 0.004436
K_37 X_NUC_1.L_CORE X_NUC_38.L_CORE 0.004381
K_38 X_NUC_1.L_CORE X_NUC_39.L_CORE 0.004345
K_39 X_NUC_1.L_CORE X_NUC_40.L_CORE 0.004375
K_40 X_NUC_1.L_CORE X_NUC_41.L_CORE 0.004879
K_41 X_NUC_1.L_CORE X_NUC_42.L_CORE 0.004910
K_42 X_NUC_1.L_CORE X_NUC_43.L_CORE 0.004804
K_43 X_NUC_1.L_CORE X_NUC_44.L_CORE 0.004839
K_44 X_NUC_1.L_CORE X_NUC_45.L_CORE 0.004576
K_45 X_NUC_1.L_CORE X_NUC_46.L_CORE 0.004544
K_46 X_NUC_1.L_CORE X_NUC_47.L_CORE 0.004503
K_47 X_NUC_1.L_CORE X_NUC_48.L_CORE 0.004487
K_48 X_NUC_1.L_CORE X_NUC_49.L_CORE 0.004160
K_49 X_NUC_1.L_CORE X_NUC_50.L_CORE 0.004144
K_50 X_NUC_1.L_CORE X_NUC_51.L_CORE 0.004086
K_51 X_NUC_1.L_CORE X_NUC_52.L_CORE 0.004112
K_52 X_NUC_1.L_CORE X_NUC_53.L_CORE 0.029279
K_53 X_NUC_1.L_CORE X_NUC_54.L_CORE 0.006022
K_54 X_NUC_1.L_CORE X_NUC_55.L_CORE 0.006137
K_55 X_NUC_1.L_CORE X_NUC_56.L_CORE 0.005813
K_56 X_NUC_1.L_CORE X_NUC_57.L_CORE 0.004032
K_57 X_NUC_1.L_CORE X_NUC_58.L_CORE 0.004597
K_58 X_NUC_1.L_CORE X_NUC_59.L_CORE 0.003790
K_59 X_NUC_2.L_CORE X_NUC_3.L_CORE 0.207973
K_60 X_NUC_2.L_CORE X_NUC_4.L_CORE 0.207973
K_61 X_NUC_2.L_CORE X_NUC_5.L_CORE 0.008869
K_62 X_NUC_2.L_CORE X_NUC_6.L_CORE 0.008529
K_63 X_NUC_2.L_CORE X_NUC_7.L_CORE 0.008593
K_64 X_NUC_2.L_CORE X_NUC_8.L_CORE 0.008706
K_65 X_NUC_2.L_CORE X_NUC_9.L_CORE 0.009039
K_66 X_NUC_2.L_CORE X_NUC_10.L_CORE 0.009194
K_67 X_NUC_2.L_CORE X_NUC_11.L_CORE 0.008856
K_68 X_NUC_2.L_CORE X_NUC_12.L_CORE 0.009188
K_69 X_NUC_2.L_CORE X_NUC_13.L_CORE 0.009871
K_70 X_NUC_2.L_CORE X_NUC_14.L_CORE 0.009672
K_71 X_NUC_2.L_CORE X_NUC_15.L_CORE 0.009753
K_72 X_NUC_2.L_CORE X_NUC_16.L_CORE 0.009441
K_73 X_NUC_2.L_CORE X_NUC_17.L_CORE 0.005728
K_74 X_NUC_2.L_CORE X_NUC_18.L_CORE 0.005643
K_75 X_NUC_2.L_CORE X_NUC_19.L_CORE 0.005584
K_76 X_NUC_2.L_CORE X_NUC_20.L_CORE 0.005694
K_77 X_NUC_2.L_CORE X_NUC_21.L_CORE 0.007784
K_78 X_NUC_2.L_CORE X_NUC_22.L_CORE 0.007986
K_79 X_NUC_2.L_CORE X_NUC_23.L_CORE 0.007722
K_80 X_NUC_2.L_CORE X_NUC_24.L_CORE 0.007738
K_81 X_NUC_2.L_CORE X_NUC_25.L_CORE 0.005699
K_82 X_NUC_2.L_CORE X_NUC_26.L_CORE 0.005582
K_83 X_NUC_2.L_CORE X_NUC_27.L_CORE 0.005583
K_84 X_NUC_2.L_CORE X_NUC_28.L_CORE 0.005560
K_85 X_NUC_2.L_CORE X_NUC_29.L_CORE 0.005097
K_86 X_NUC_2.L_CORE X_NUC_30.L_CORE 0.005101
K_87 X_NUC_2.L_CORE X_NUC_31.L_CORE 0.004996
K_88 X_NUC_2.L_CORE X_NUC_32.L_CORE 0.005087
K_89 X_NUC_2.L_CORE X_NUC_33.L_CORE 0.006018
K_90 X_NUC_2.L_CORE X_NUC_34.L_CORE 0.006037
K_91 X_NUC_2.L_CORE X_NUC_35.L_CORE 0.005955
K_92 X_NUC_2.L_CORE X_NUC_36.L_CORE 0.005884
K_93 X_NUC_2.L_CORE X_NUC_37.L_CORE 0.004492
K_94 X_NUC_2.L_CORE X_NUC_38.L_CORE 0.004436
K_95 X_NUC_2.L_CORE X_NUC_39.L_CORE 0.004398
K_96 X_NUC_2.L_CORE X_NUC_40.L_CORE 0.004429
K_97 X_NUC_2.L_CORE X_NUC_41.L_CORE 0.004847
K_98 X_NUC_2.L_CORE X_NUC_42.L_CORE 0.004879
K_99 X_NUC_2.L_CORE X_NUC_43.L_CORE 0.004774
K_100 X_NUC_2.L_CORE X_NUC_44.L_CORE 0.004809
K_101 X_NUC_2.L_CORE X_NUC_45.L_CORE 0.004607
K_102 X_NUC_2.L_CORE X_NUC_46.L_CORE 0.004576
K_103 X_NUC_2.L_CORE X_NUC_47.L_CORE 0.004533
K_104 X_NUC_2.L_CORE X_NUC_48.L_CORE 0.004517
K_105 X_NUC_2.L_CORE X_NUC_49.L_CORE 0.004175
K_106 X_NUC_2.L_CORE X_NUC_50.L_CORE 0.004160
K_107 X_NUC_2.L_CORE X_NUC_51.L_CORE 0.004101
K_108 X_NUC_2.L_CORE X_NUC_52.L_CORE 0.004127
K_109 X_NUC_2.L_CORE X_NUC_53.L_CORE 0.026911
K_110 X_NUC_2.L_CORE X_NUC_54.L_CORE 0.006194
K_111 X_NUC_2.L_CORE X_NUC_55.L_CORE 0.006052
K_112 X_NUC_2.L_CORE X_NUC_56.L_CORE 0.005864
K_113 X_NUC_2.L_CORE X_NUC_57.L_CORE 0.004069
K_114 X_NUC_2.L_CORE X_NUC_58.L_CORE 0.004557
K_115 X_NUC_2.L_CORE X_NUC_59.L_CORE 0.003816
K_116 X_NUC_3.L_CORE X_NUC_4.L_CORE 0.207973
K_117 X_NUC_3.L_CORE X_NUC_5.L_CORE 0.008790
K_118 X_NUC_3.L_CORE X_NUC_6.L_CORE 0.008452
K_119 X_NUC_3.L_CORE X_NUC_7.L_CORE 0.008529
K_120 X_NUC_3.L_CORE X_NUC_8.L_CORE 0.008632
K_121 X_NUC_3.L_CORE X_NUC_9.L_CORE 0.009390
K_122 X_NUC_3.L_CORE X_NUC_10.L_CORE 0.009554
K_123 X_NUC_3.L_CORE X_NUC_11.L_CORE 0.009194
K_124 X_NUC_3.L_CORE X_NUC_12.L_CORE 0.009557
K_125 X_NUC_3.L_CORE X_NUC_13.L_CORE 0.009777
K_126 X_NUC_3.L_CORE X_NUC_14.L_CORE 0.009573
K_127 X_NUC_3.L_CORE X_NUC_15.L_CORE 0.009672
K_128 X_NUC_3.L_CORE X_NUC_16.L_CORE 0.009358
K_129 X_NUC_3.L_CORE X_NUC_17.L_CORE 0.005789
K_130 X_NUC_3.L_CORE X_NUC_18.L_CORE 0.005699
K_131 X_NUC_3.L_CORE X_NUC_19.L_CORE 0.005643
K_132 X_NUC_3.L_CORE X_NUC_20.L_CORE 0.005754
K_133 X_NUC_3.L_CORE X_NUC_21.L_CORE 0.008048
K_134 X_NUC_3.L_CORE X_NUC_22.L_CORE 0.008266
K_135 X_NUC_3.L_CORE X_NUC_23.L_CORE 0.007986
K_136 X_NUC_3.L_CORE X_NUC_24.L_CORE 0.007998
K_137 X_NUC_3.L_CORE X_NUC_25.L_CORE 0.005696
K_138 X_NUC_3.L_CORE X_NUC_26.L_CORE 0.005577
K_139 X_NUC_3.L_CORE X_NUC_27.L_CORE 0.005582
K_140 X_NUC_3.L_CORE X_NUC_28.L_CORE 0.005557
K_141 X_NUC_3.L_CORE X_NUC_29.L_CORE 0.005207
K_142 X_NUC_3.L_CORE X_NUC_30.L_CORE 0.005209
K_143 X_NUC_3.L_CORE X_NUC_31.L_CORE 0.005101
K_144 X_NUC_3.L_CORE X_NUC_32.L_CORE 0.005196
K_145 X_NUC_3.L_CORE X_NUC_33.L_CORE 0.006101
K_146 X_NUC_3.L_CORE X_NUC_34.L_CORE 0.006118
K_147 X_NUC_3.L_CORE X_NUC_35.L_CORE 0.006037
K_148 X_NUC_3.L_CORE X_NUC_36.L_CORE 0.005961
K_149 X_NUC_3.L_CORE X_NUC_37.L_CORE 0.004531
K_150 X_NUC_3.L_CORE X_NUC_38.L_CORE 0.004473
K_151 X_NUC_3.L_CORE X_NUC_39.L_CORE 0.004436
K_152 X_NUC_3.L_CORE X_NUC_40.L_CORE 0.004467
K_153 X_NUC_3.L_CORE X_NUC_41.L_CORE 0.004956
K_154 X_NUC_3.L_CORE X_NUC_42.L_CORE 0.004989
K_155 X_NUC_3.L_CORE X_NUC_43.L_CORE 0.004879
K_156 X_NUC_3.L_CORE X_NUC_44.L_CORE 0.004915
K_157 X_NUC_3.L_CORE X_NUC_45.L_CORE 0.004651
K_158 X_NUC_3.L_CORE X_NUC_46.L_CORE 0.004618
K_159 X_NUC_3.L_CORE X_NUC_47.L_CORE 0.004576
K_160 X_NUC_3.L_CORE X_NUC_48.L_CORE 0.004559
K_161 X_NUC_3.L_CORE X_NUC_49.L_CORE 0.004237
K_162 X_NUC_3.L_CORE X_NUC_50.L_CORE 0.004221
K_163 X_NUC_3.L_CORE X_NUC_51.L_CORE 0.004160
K_164 X_NUC_3.L_CORE X_NUC_52.L_CORE 0.004187
K_165 X_NUC_3.L_CORE X_NUC_53.L_CORE 0.025777
K_166 X_NUC_3.L_CORE X_NUC_54.L_CORE 0.006147
K_167 X_NUC_3.L_CORE X_NUC_55.L_CORE 0.006219
K_168 X_NUC_3.L_CORE X_NUC_56.L_CORE 0.005858
K_169 X_NUC_3.L_CORE X_NUC_57.L_CORE 0.004111
K_170 X_NUC_3.L_CORE X_NUC_58.L_CORE 0.004644
K_171 X_NUC_3.L_CORE X_NUC_59.L_CORE 0.003848
K_172 X_NUC_4.L_CORE X_NUC_5.L_CORE 0.008674
K_173 X_NUC_4.L_CORE X_NUC_6.L_CORE 0.008349
K_174 X_NUC_4.L_CORE X_NUC_7.L_CORE 0.008416
K_175 X_NUC_4.L_CORE X_NUC_8.L_CORE 0.008529
K_176 X_NUC_4.L_CORE X_NUC_9.L_CORE 0.009037
K_177 X_NUC_4.L_CORE X_NUC_10.L_CORE 0.009182
K_178 X_NUC_4.L_CORE X_NUC_11.L_CORE 0.008854
K_179 X_NUC_4.L_CORE X_NUC_12.L_CORE 0.009194
K_180 X_NUC_4.L_CORE X_NUC_13.L_CORE 0.010124
K_181 X_NUC_4.L_CORE X_NUC_14.L_CORE 0.009898
K_182 X_NUC_4.L_CORE X_NUC_15.L_CORE 0.009996
K_183 X_NUC_4.L_CORE X_NUC_16.L_CORE 0.009672
K_184 X_NUC_4.L_CORE X_NUC_17.L_CORE 0.005674
K_185 X_NUC_4.L_CORE X_NUC_18.L_CORE 0.005589
K_186 X_NUC_4.L_CORE X_NUC_19.L_CORE 0.005534
K_187 X_NUC_4.L_CORE X_NUC_20.L_CORE 0.005643
K_188 X_NUC_4.L_CORE X_NUC_21.L_CORE 0.008031
K_189 X_NUC_4.L_CORE X_NUC_22.L_CORE 0.008248
K_190 X_NUC_4.L_CORE X_NUC_23.L_CORE 0.007964
K_191 X_NUC_4.L_CORE X_NUC_24.L_CORE 0.007986
K_192 X_NUC_4.L_CORE X_NUC_25.L_CORE 0.005720
K_193 X_NUC_4.L_CORE X_NUC_26.L_CORE 0.005600
K_194 X_NUC_4.L_CORE X_NUC_27.L_CORE 0.005603
K_195 X_NUC_4.L_CORE X_NUC_28.L_CORE 0.005582
K_196 X_NUC_4.L_CORE X_NUC_29.L_CORE 0.005110
K_197 X_NUC_4.L_CORE X_NUC_30.L_CORE 0.005112
K_198 X_NUC_4.L_CORE X_NUC_31.L_CORE 0.005008
K_199 X_NUC_4.L_CORE X_NUC_32.L_CORE 0.005101
K_200 X_NUC_4.L_CORE X_NUC_33.L_CORE 0.006180
K_201 X_NUC_4.L_CORE X_NUC_34.L_CORE 0.006198
K_202 X_NUC_4.L_CORE X_NUC_35.L_CORE 0.006112
K_203 X_NUC_4.L_CORE X_NUC_36.L_CORE 0.006037
K_204 X_NUC_4.L_CORE X_NUC_37.L_CORE 0.004498
K_205 X_NUC_4.L_CORE X_NUC_38.L_CORE 0.004442
K_206 X_NUC_4.L_CORE X_NUC_39.L_CORE 0.004405
K_207 X_NUC_4.L_CORE X_NUC_40.L_CORE 0.004436
K_208 X_NUC_4.L_CORE X_NUC_41.L_CORE 0.004918
K_209 X_NUC_4.L_CORE X_NUC_42.L_CORE 0.004950
K_210 X_NUC_4.L_CORE X_NUC_43.L_CORE 0.004842
K_211 X_NUC_4.L_CORE X_NUC_44.L_CORE 0.004879
K_212 X_NUC_4.L_CORE X_NUC_45.L_CORE 0.004668
K_213 X_NUC_4.L_CORE X_NUC_46.L_CORE 0.004635
K_214 X_NUC_4.L_CORE X_NUC_47.L_CORE 0.004592
K_215 X_NUC_4.L_CORE X_NUC_48.L_CORE 0.004576
K_216 X_NUC_4.L_CORE X_NUC_49.L_CORE 0.004209
K_217 X_NUC_4.L_CORE X_NUC_50.L_CORE 0.004193
K_218 X_NUC_4.L_CORE X_NUC_51.L_CORE 0.004133
K_219 X_NUC_4.L_CORE X_NUC_52.L_CORE 0.004160
K_220 X_NUC_4.L_CORE X_NUC_53.L_CORE 0.027835
K_221 X_NUC_4.L_CORE X_NUC_54.L_CORE 0.006104
K_222 X_NUC_4.L_CORE X_NUC_55.L_CORE 0.006078
K_223 X_NUC_4.L_CORE X_NUC_56.L_CORE 0.005975
K_224 X_NUC_4.L_CORE X_NUC_57.L_CORE 0.004061
K_225 X_NUC_4.L_CORE X_NUC_58.L_CORE 0.004641
K_226 X_NUC_4.L_CORE X_NUC_59.L_CORE 0.003850
K_227 X_NUC_5.L_CORE X_NUC_6.L_CORE 0.207973
K_228 X_NUC_5.L_CORE X_NUC_7.L_CORE 0.207973
K_229 X_NUC_5.L_CORE X_NUC_8.L_CORE 0.207973
K_230 X_NUC_5.L_CORE X_NUC_9.L_CORE 0.006178
K_231 X_NUC_5.L_CORE X_NUC_10.L_CORE 0.006352
K_232 X_NUC_5.L_CORE X_NUC_11.L_CORE 0.006213
K_233 X_NUC_5.L_CORE X_NUC_12.L_CORE 0.006280
K_234 X_NUC_5.L_CORE X_NUC_13.L_CORE 0.007587
K_235 X_NUC_5.L_CORE X_NUC_14.L_CORE 0.007718
K_236 X_NUC_5.L_CORE X_NUC_15.L_CORE 0.007711
K_237 X_NUC_5.L_CORE X_NUC_16.L_CORE 0.007480
K_238 X_NUC_5.L_CORE X_NUC_17.L_CORE 0.009334
K_239 X_NUC_5.L_CORE X_NUC_18.L_CORE 0.009368
K_240 X_NUC_5.L_CORE X_NUC_19.L_CORE 0.009030
K_241 X_NUC_5.L_CORE X_NUC_20.L_CORE 0.009370
K_242 X_NUC_5.L_CORE X_NUC_21.L_CORE 0.004775
K_243 X_NUC_5.L_CORE X_NUC_22.L_CORE 0.004878
K_244 X_NUC_5.L_CORE X_NUC_23.L_CORE 0.004804
K_245 X_NUC_5.L_CORE X_NUC_24.L_CORE 0.004789
K_246 X_NUC_5.L_CORE X_NUC_25.L_CORE 0.008624
K_247 X_NUC_5.L_CORE X_NUC_26.L_CORE 0.008533
K_248 X_NUC_5.L_CORE X_NUC_27.L_CORE 0.008473
K_249 X_NUC_5.L_CORE X_NUC_28.L_CORE 0.008293
K_250 X_NUC_5.L_CORE X_NUC_29.L_CORE 0.005170
K_251 X_NUC_5.L_CORE X_NUC_30.L_CORE 0.005245
K_252 X_NUC_5.L_CORE X_NUC_31.L_CORE 0.005118
K_253 X_NUC_5.L_CORE X_NUC_32.L_CORE 0.005190
K_254 X_NUC_5.L_CORE X_NUC_33.L_CORE 0.004753
K_255 X_NUC_5.L_CORE X_NUC_34.L_CORE 0.004818
K_256 X_NUC_5.L_CORE X_NUC_35.L_CORE 0.004765
K_257 X_NUC_5.L_CORE X_NUC_36.L_CORE 0.004710
K_258 X_NUC_5.L_CORE X_NUC_37.L_CORE 0.006455
K_259 X_NUC_5.L_CORE X_NUC_38.L_CORE 0.006424
K_260 X_NUC_5.L_CORE X_NUC_39.L_CORE 0.006284
K_261 X_NUC_5.L_CORE X_NUC_40.L_CORE 0.006330
K_262 X_NUC_5.L_CORE X_NUC_41.L_CORE 0.004204
K_263 X_NUC_5.L_CORE X_NUC_42.L_CORE 0.004264
K_264 X_NUC_5.L_CORE X_NUC_43.L_CORE 0.004186
K_265 X_NUC_5.L_CORE X_NUC_44.L_CORE 0.004196
K_266 X_NUC_5.L_CORE X_NUC_45.L_CORE 0.004915
K_267 X_NUC_5.L_CORE X_NUC_46.L_CORE 0.004937
K_268 X_NUC_5.L_CORE X_NUC_47.L_CORE 0.004872
K_269 X_NUC_5.L_CORE X_NUC_48.L_CORE 0.004832
K_270 X_NUC_5.L_CORE X_NUC_49.L_CORE 0.004576
K_271 X_NUC_5.L_CORE X_NUC_50.L_CORE 0.004605
K_272 X_NUC_5.L_CORE X_NUC_51.L_CORE 0.004515
K_273 X_NUC_5.L_CORE X_NUC_52.L_CORE 0.004534
K_274 X_NUC_5.L_CORE X_NUC_53.L_CORE 0.006817
K_275 X_NUC_5.L_CORE X_NUC_54.L_CORE 0.019953
K_276 X_NUC_5.L_CORE X_NUC_55.L_CORE 0.004701
K_277 X_NUC_5.L_CORE X_NUC_56.L_CORE 0.005307
K_278 X_NUC_5.L_CORE X_NUC_57.L_CORE 0.005554
K_279 X_NUC_5.L_CORE X_NUC_58.L_CORE 0.003723
K_280 X_NUC_5.L_CORE X_NUC_59.L_CORE 0.004378
K_281 X_NUC_6.L_CORE X_NUC_7.L_CORE 0.207973
K_282 X_NUC_6.L_CORE X_NUC_8.L_CORE 0.207973
K_283 X_NUC_6.L_CORE X_NUC_9.L_CORE 0.006012
K_284 X_NUC_6.L_CORE X_NUC_10.L_CORE 0.006178
K_285 X_NUC_6.L_CORE X_NUC_11.L_CORE 0.006047
K_286 X_NUC_6.L_CORE X_NUC_12.L_CORE 0.006109
K_287 X_NUC_6.L_CORE X_NUC_13.L_CORE 0.007453
K_288 X_NUC_6.L_CORE X_NUC_14.L_CORE 0.007587
K_289 X_NUC_6.L_CORE X_NUC_15.L_CORE 0.007576
K_290 X_NUC_6.L_CORE X_NUC_16.L_CORE 0.007356
K_291 X_NUC_6.L_CORE X_NUC_17.L_CORE 0.009281
K_292 X_NUC_6.L_CORE X_NUC_18.L_CORE 0.009334
K_293 X_NUC_6.L_CORE X_NUC_19.L_CORE 0.008991
K_294 X_NUC_6.L_CORE X_NUC_20.L_CORE 0.009326
K_295 X_NUC_6.L_CORE X_NUC_21.L_CORE 0.004675
K_296 X_NUC_6.L_CORE X_NUC_22.L_CORE 0.004775
K_297 X_NUC_6.L_CORE X_NUC_23.L_CORE 0.004704
K_298 X_NUC_6.L_CORE X_NUC_24.L_CORE 0.004690
K_299 X_NUC_6.L_CORE X_NUC_25.L_CORE 0.008702
K_300 X_NUC_6.L_CORE X_NUC_26.L_CORE 0.008624
K_301 X_NUC_6.L_CORE X_NUC_27.L_CORE 0.008555
K_302 X_NUC_6.L_CORE X_NUC_28.L_CORE 0.008370
K_303 X_NUC_6.L_CORE X_NUC_29.L_CORE 0.005095
K_304 X_NUC_6.L_CORE X_NUC_30.L_CORE 0.005170
K_305 X_NUC_6.L_CORE X_NUC_31.L_CORE 0.005046
K_306 X_NUC_6.L_CORE X_NUC_32.L_CORE 0.005116
K_307 X_NUC_6.L_CORE X_NUC_33.L_CORE 0.004689
K_308 X_NUC_6.L_CORE X_NUC_34.L_CORE 0.004753
K_309 X_NUC_6.L_CORE X_NUC_35.L_CORE 0.004701
K_310 X_NUC_6.L_CORE X_NUC_36.L_CORE 0.004648
K_311 X_NUC_6.L_CORE X_NUC_37.L_CORE 0.006480
K_312 X_NUC_6.L_CORE X_NUC_38.L_CORE 0.006455
K_313 X_NUC_6.L_CORE X_NUC_39.L_CORE 0.006310
K_314 X_NUC_6.L_CORE X_NUC_40.L_CORE 0.006357
K_315 X_NUC_6.L_CORE X_NUC_41.L_CORE 0.004145
K_316 X_NUC_6.L_CORE X_NUC_42.L_CORE 0.004204
K_317 X_NUC_6.L_CORE X_NUC_43.L_CORE 0.004128
K_318 X_NUC_6.L_CORE X_NUC_44.L_CORE 0.004138
K_319 X_NUC_6.L_CORE X_NUC_45.L_CORE 0.004890
K_320 X_NUC_6.L_CORE X_NUC_46.L_CORE 0.004915
K_321 X_NUC_6.L_CORE X_NUC_47.L_CORE 0.004849
K_322 X_NUC_6.L_CORE X_NUC_48.L_CORE 0.004810
K_323 X_NUC_6.L_CORE X_NUC_49.L_CORE 0.004545
K_324 X_NUC_6.L_CORE X_NUC_50.L_CORE 0.004576
K_325 X_NUC_6.L_CORE X_NUC_51.L_CORE 0.004487
K_326 X_NUC_6.L_CORE X_NUC_52.L_CORE 0.004505
K_327 X_NUC_6.L_CORE X_NUC_53.L_CORE 0.006624
K_328 X_NUC_6.L_CORE X_NUC_54.L_CORE 0.022034
K_329 X_NUC_6.L_CORE X_NUC_55.L_CORE 0.004610
K_330 X_NUC_6.L_CORE X_NUC_56.L_CORE 0.005266
K_331 X_NUC_6.L_CORE X_NUC_57.L_CORE 0.005559
K_332 X_NUC_6.L_CORE X_NUC_58.L_CORE 0.003675
K_333 X_NUC_6.L_CORE X_NUC_59.L_CORE 0.004374
K_334 X_NUC_7.L_CORE X_NUC_8.L_CORE 0.207973
K_335 X_NUC_7.L_CORE X_NUC_9.L_CORE 0.006138
K_336 X_NUC_7.L_CORE X_NUC_10.L_CORE 0.006312
K_337 X_NUC_7.L_CORE X_NUC_11.L_CORE 0.006178
K_338 X_NUC_7.L_CORE X_NUC_12.L_CORE 0.006242
K_339 X_NUC_7.L_CORE X_NUC_13.L_CORE 0.007459
K_340 X_NUC_7.L_CORE X_NUC_14.L_CORE 0.007588
K_341 X_NUC_7.L_CORE X_NUC_15.L_CORE 0.007587
K_342 X_NUC_7.L_CORE X_NUC_16.L_CORE 0.007362
K_343 X_NUC_7.L_CORE X_NUC_17.L_CORE 0.009649
K_344 X_NUC_7.L_CORE X_NUC_18.L_CORE 0.009698
K_345 X_NUC_7.L_CORE X_NUC_19.L_CORE 0.009334
K_346 X_NUC_7.L_CORE X_NUC_20.L_CORE 0.009700
K_347 X_NUC_7.L_CORE X_NUC_21.L_CORE 0.004743
K_348 X_NUC_7.L_CORE X_NUC_22.L_CORE 0.004845
K_349 X_NUC_7.L_CORE X_NUC_23.L_CORE 0.004775
K_350 X_NUC_7.L_CORE X_NUC_24.L_CORE 0.004758
K_351 X_NUC_7.L_CORE X_NUC_25.L_CORE 0.008766
K_352 X_NUC_7.L_CORE X_NUC_26.L_CORE 0.008679
K_353 X_NUC_7.L_CORE X_NUC_27.L_CORE 0.008624
K_354 X_NUC_7.L_CORE X_NUC_28.L_CORE 0.008427
K_355 X_NUC_7.L_CORE X_NUC_29.L_CORE 0.005221
K_356 X_NUC_7.L_CORE X_NUC_30.L_CORE 0.005300
K_357 X_NUC_7.L_CORE X_NUC_31.L_CORE 0.005170
K_358 X_NUC_7.L_CORE X_NUC_32.L_CORE 0.005243
K_359 X_NUC_7.L_CORE X_NUC_33.L_CORE 0.004739
K_360 X_NUC_7.L_CORE X_NUC_34.L_CORE 0.004805
K_361 X_NUC_7.L_CORE X_NUC_35.L_CORE 0.004753
K_362 X_NUC_7.L_CORE X_NUC_36.L_CORE 0.004697
K_363 X_NUC_7.L_CORE X_NUC_37.L_CORE 0.006633
K_364 X_NUC_7.L_CORE X_NUC_38.L_CORE 0.006603
K_365 X_NUC_7.L_CORE X_NUC_39.L_CORE 0.006455
K_366 X_NUC_7.L_CORE X_NUC_40.L_CORE 0.006501
K_367 X_NUC_7.L_CORE X_NUC_41.L_CORE 0.004221
K_368 X_NUC_7.L_CORE X_NUC_42.L_CORE 0.004283
K_369 X_NUC_7.L_CORE X_NUC_43.L_CORE 0.004204
K_370 X_NUC_7.L_CORE X_NUC_44.L_CORE 0.004214
K_371 X_NUC_7.L_CORE X_NUC_45.L_CORE 0.004957
K_372 X_NUC_7.L_CORE X_NUC_46.L_CORE 0.004981
K_373 X_NUC_7.L_CORE X_NUC_47.L_CORE 0.004915
K_374 X_NUC_7.L_CORE X_NUC_48.L_CORE 0.004873
K_375 X_NUC_7.L_CORE X_NUC_49.L_CORE 0.004638
K_376 X_NUC_7.L_CORE X_NUC_50.L_CORE 0.004669
K_377 X_NUC_7.L_CORE X_NUC_51.L_CORE 0.004576
K_378 X_NUC_7.L_CORE X_NUC_52.L_CORE 0.004594
K_379 X_NUC_7.L_CORE X_NUC_53.L_CORE 0.006639
K_380 X_NUC_7.L_CORE X_NUC_54.L_CORE 0.021165
K_381 X_NUC_7.L_CORE X_NUC_55.L_CORE 0.004694
K_382 X_NUC_7.L_CORE X_NUC_56.L_CORE 0.005278
K_383 X_NUC_7.L_CORE X_NUC_57.L_CORE 0.005688
K_384 X_NUC_7.L_CORE X_NUC_58.L_CORE 0.003727
K_385 X_NUC_7.L_CORE X_NUC_59.L_CORE 0.004432
K_386 X_NUC_8.L_CORE X_NUC_9.L_CORE 0.006075
K_387 X_NUC_8.L_CORE X_NUC_10.L_CORE 0.006243
K_388 X_NUC_8.L_CORE X_NUC_11.L_CORE 0.006111
K_389 X_NUC_8.L_CORE X_NUC_12.L_CORE 0.006178
K_390 X_NUC_8.L_CORE X_NUC_13.L_CORE 0.007688
K_391 X_NUC_8.L_CORE X_NUC_14.L_CORE 0.007829
K_392 X_NUC_8.L_CORE X_NUC_15.L_CORE 0.007823
K_393 X_NUC_8.L_CORE X_NUC_16.L_CORE 0.007587
K_394 X_NUC_8.L_CORE X_NUC_17.L_CORE 0.009279
K_395 X_NUC_8.L_CORE X_NUC_18.L_CORE 0.009323
K_396 X_NUC_8.L_CORE X_NUC_19.L_CORE 0.008989
K_397 X_NUC_8.L_CORE X_NUC_20.L_CORE 0.009334
K_398 X_NUC_8.L_CORE X_NUC_21.L_CORE 0.004758
K_399 X_NUC_8.L_CORE X_NUC_22.L_CORE 0.004862
K_400 X_NUC_8.L_CORE X_NUC_23.L_CORE 0.004789
K_401 X_NUC_8.L_CORE X_NUC_24.L_CORE 0.004775
K_402 X_NUC_8.L_CORE X_NUC_25.L_CORE 0.008980
K_403 X_NUC_8.L_CORE X_NUC_26.L_CORE 0.008886
K_404 X_NUC_8.L_CORE X_NUC_27.L_CORE 0.008819
K_405 X_NUC_8.L_CORE X_NUC_28.L_CORE 0.008624
K_406 X_NUC_8.L_CORE X_NUC_29.L_CORE 0.005147
K_407 X_NUC_8.L_CORE X_NUC_30.L_CORE 0.005222
K_408 X_NUC_8.L_CORE X_NUC_31.L_CORE 0.005097
K_409 X_NUC_8.L_CORE X_NUC_32.L_CORE 0.005170
K_410 X_NUC_8.L_CORE X_NUC_33.L_CORE 0.004795
K_411 X_NUC_8.L_CORE X_NUC_34.L_CORE 0.004863
K_412 X_NUC_8.L_CORE X_NUC_35.L_CORE 0.004809
K_413 X_NUC_8.L_CORE X_NUC_36.L_CORE 0.004753
K_414 X_NUC_8.L_CORE X_NUC_37.L_CORE 0.006581
K_415 X_NUC_8.L_CORE X_NUC_38.L_CORE 0.006551
K_416 X_NUC_8.L_CORE X_NUC_39.L_CORE 0.006403
K_417 X_NUC_8.L_CORE X_NUC_40.L_CORE 0.006455
K_418 X_NUC_8.L_CORE X_NUC_41.L_CORE 0.004211
K_419 X_NUC_8.L_CORE X_NUC_42.L_CORE 0.004272
K_420 X_NUC_8.L_CORE X_NUC_43.L_CORE 0.004193
K_421 X_NUC_8.L_CORE X_NUC_44.L_CORE 0.004204
K_422 X_NUC_8.L_CORE X_NUC_45.L_CORE 0.005000
K_423 X_NUC_8.L_CORE X_NUC_46.L_CORE 0.005025
K_424 X_NUC_8.L_CORE X_NUC_47.L_CORE 0.004955
K_425 X_NUC_8.L_CORE X_NUC_48.L_CORE 0.004915
K_426 X_NUC_8.L_CORE X_NUC_49.L_CORE 0.004618
K_427 X_NUC_8.L_CORE X_NUC_50.L_CORE 0.004649
K_428 X_NUC_8.L_CORE X_NUC_51.L_CORE 0.004556
K_429 X_NUC_8.L_CORE X_NUC_52.L_CORE 0.004576
K_430 X_NUC_8.L_CORE X_NUC_53.L_CORE 0.006723
K_431 X_NUC_8.L_CORE X_NUC_54.L_CORE 0.021072
K_432 X_NUC_8.L_CORE X_NUC_55.L_CORE 0.004650
K_433 X_NUC_8.L_CORE X_NUC_56.L_CORE 0.005390
K_434 X_NUC_8.L_CORE X_NUC_57.L_CORE 0.005588
K_435 X_NUC_8.L_CORE X_NUC_58.L_CORE 0.003734
K_436 X_NUC_8.L_CORE X_NUC_59.L_CORE 0.004449
K_437 X_NUC_9.L_CORE X_NUC_10.L_CORE 0.207973
K_438 X_NUC_9.L_CORE X_NUC_11.L_CORE 0.207973
K_439 X_NUC_9.L_CORE X_NUC_12.L_CORE 0.207973
K_440 X_NUC_9.L_CORE X_NUC_13.L_CORE 0.005275
K_441 X_NUC_9.L_CORE X_NUC_14.L_CORE 0.005213
K_442 X_NUC_9.L_CORE X_NUC_15.L_CORE 0.005293
K_443 X_NUC_9.L_CORE X_NUC_16.L_CORE 0.005177
K_444 X_NUC_9.L_CORE X_NUC_17.L_CORE 0.006782
K_445 X_NUC_9.L_CORE X_NUC_18.L_CORE 0.006580
K_446 X_NUC_9.L_CORE X_NUC_19.L_CORE 0.006617
K_447 X_NUC_9.L_CORE X_NUC_20.L_CORE 0.006663
K_448 X_NUC_9.L_CORE X_NUC_21.L_CORE 0.008913
K_449 X_NUC_9.L_CORE X_NUC_22.L_CORE 0.009056
K_450 X_NUC_9.L_CORE X_NUC_23.L_CORE 0.008994
K_451 X_NUC_9.L_CORE X_NUC_24.L_CORE 0.008704
K_452 X_NUC_9.L_CORE X_NUC_25.L_CORE 0.004393
K_453 X_NUC_9.L_CORE X_NUC_26.L_CORE 0.004321
K_454 X_NUC_9.L_CORE X_NUC_27.L_CORE 0.004359
K_455 X_NUC_9.L_CORE X_NUC_28.L_CORE 0.004312
K_456 X_NUC_9.L_CORE X_NUC_29.L_CORE 0.008851
K_457 X_NUC_9.L_CORE X_NUC_30.L_CORE 0.008722
K_458 X_NUC_9.L_CORE X_NUC_31.L_CORE 0.008497
K_459 X_NUC_9.L_CORE X_NUC_32.L_CORE 0.008656
K_460 X_NUC_9.L_CORE X_NUC_33.L_CORE 0.004976
K_461 X_NUC_9.L_CORE X_NUC_34.L_CORE 0.004960
K_462 X_NUC_9.L_CORE X_NUC_35.L_CORE 0.004970
K_463 X_NUC_9.L_CORE X_NUC_36.L_CORE 0.004875
K_464 X_NUC_9.L_CORE X_NUC_37.L_CORE 0.004619
K_465 X_NUC_9.L_CORE X_NUC_38.L_CORE 0.004539
K_466 X_NUC_9.L_CORE X_NUC_39.L_CORE 0.004540
K_467 X_NUC_9.L_CORE X_NUC_40.L_CORE 0.004531
K_468 X_NUC_9.L_CORE X_NUC_41.L_CORE 0.006565
K_469 X_NUC_9.L_CORE X_NUC_42.L_CORE 0.006585
K_470 X_NUC_9.L_CORE X_NUC_43.L_CORE 0.006453
K_471 X_NUC_9.L_CORE X_NUC_44.L_CORE 0.006416
K_472 X_NUC_9.L_CORE X_NUC_45.L_CORE 0.004204
K_473 X_NUC_9.L_CORE X_NUC_46.L_CORE 0.004165
K_474 X_NUC_9.L_CORE X_NUC_47.L_CORE 0.004165
K_475 X_NUC_9.L_CORE X_NUC_48.L_CORE 0.004121
K_476 X_NUC_9.L_CORE X_NUC_49.L_CORE 0.004879
K_477 X_NUC_9.L_CORE X_NUC_50.L_CORE 0.004831
K_478 X_NUC_9.L_CORE X_NUC_51.L_CORE 0.004788
K_479 X_NUC_9.L_CORE X_NUC_52.L_CORE 0.004779
K_480 X_NUC_9.L_CORE X_NUC_53.L_CORE 0.007710
K_481 X_NUC_9.L_CORE X_NUC_54.L_CORE 0.004822
K_482 X_NUC_9.L_CORE X_NUC_55.L_CORE 0.017192
K_483 X_NUC_9.L_CORE X_NUC_56.L_CORE 0.004101
K_484 X_NUC_9.L_CORE X_NUC_57.L_CORE 0.004840
K_485 X_NUC_9.L_CORE X_NUC_58.L_CORE 0.005249
K_486 X_NUC_9.L_CORE X_NUC_59.L_CORE 0.003706
K_487 X_NUC_10.L_CORE X_NUC_11.L_CORE 0.207973
K_488 X_NUC_10.L_CORE X_NUC_12.L_CORE 0.207973
K_489 X_NUC_10.L_CORE X_NUC_13.L_CORE 0.005336
K_490 X_NUC_10.L_CORE X_NUC_14.L_CORE 0.005275
K_491 X_NUC_10.L_CORE X_NUC_15.L_CORE 0.005356
K_492 X_NUC_10.L_CORE X_NUC_16.L_CORE 0.005236
K_493 X_NUC_10.L_CORE X_NUC_17.L_CORE 0.006997
K_494 X_NUC_10.L_CORE X_NUC_18.L_CORE 0.006782
K_495 X_NUC_10.L_CORE X_NUC_19.L_CORE 0.006819
K_496 X_NUC_10.L_CORE X_NUC_20.L_CORE 0.006870
K_497 X_NUC_10.L_CORE X_NUC_21.L_CORE 0.008760
K_498 X_NUC_10.L_CORE X_NUC_22.L_CORE 0.008913
K_499 X_NUC_10.L_CORE X_NUC_23.L_CORE 0.008845
K_500 X_NUC_10.L_CORE X_NUC_24.L_CORE 0.008569
K_501 X_NUC_10.L_CORE X_NUC_25.L_CORE 0.004466
K_502 X_NUC_10.L_CORE X_NUC_26.L_CORE 0.004393
K_503 X_NUC_10.L_CORE X_NUC_27.L_CORE 0.004432
K_504 X_NUC_10.L_CORE X_NUC_28.L_CORE 0.004382
K_505 X_NUC_10.L_CORE X_NUC_29.L_CORE 0.008968
K_506 X_NUC_10.L_CORE X_NUC_30.L_CORE 0.008851
K_507 X_NUC_10.L_CORE X_NUC_31.L_CORE 0.008608
K_508 X_NUC_10.L_CORE X_NUC_32.L_CORE 0.008774
K_509 X_NUC_10.L_CORE X_NUC_33.L_CORE 0.004989
K_510 X_NUC_10.L_CORE X_NUC_34.L_CORE 0.004976
K_511 X_NUC_10.L_CORE X_NUC_35.L_CORE 0.004984
K_512 X_NUC_10.L_CORE X_NUC_36.L_CORE 0.004889
K_513 X_NUC_10.L_CORE X_NUC_37.L_CORE 0.004702
K_514 X_NUC_10.L_CORE X_NUC_38.L_CORE 0.004619
K_515 X_NUC_10.L_CORE X_NUC_39.L_CORE 0.004620
K_516 X_NUC_10.L_CORE X_NUC_40.L_CORE 0.004610
K_517 X_NUC_10.L_CORE X_NUC_41.L_CORE 0.006540
K_518 X_NUC_10.L_CORE X_NUC_42.L_CORE 0.006565
K_519 X_NUC_10.L_CORE X_NUC_43.L_CORE 0.006432
K_520 X_NUC_10.L_CORE X_NUC_44.L_CORE 0.006395
K_521 X_NUC_10.L_CORE X_NUC_45.L_CORE 0.004243
K_522 X_NUC_10.L_CORE X_NUC_46.L_CORE 0.004204
K_523 X_NUC_10.L_CORE X_NUC_47.L_CORE 0.004204
K_524 X_NUC_10.L_CORE X_NUC_48.L_CORE 0.004158
K_525 X_NUC_10.L_CORE X_NUC_49.L_CORE 0.004926
K_526 X_NUC_10.L_CORE X_NUC_50.L_CORE 0.004879
K_527 X_NUC_10.L_CORE X_NUC_51.L_CORE 0.004833
K_528 X_NUC_10.L_CORE X_NUC_52.L_CORE 0.004825
K_529 X_NUC_10.L_CORE X_NUC_53.L_CORE 0.007749
K_530 X_NUC_10.L_CORE X_NUC_54.L_CORE 0.004932
K_531 X_NUC_10.L_CORE X_NUC_55.L_CORE 0.016328
K_532 X_NUC_10.L_CORE X_NUC_56.L_CORE 0.004132
K_533 X_NUC_10.L_CORE X_NUC_57.L_CORE 0.004928
K_534 X_NUC_10.L_CORE X_NUC_58.L_CORE 0.005216
K_535 X_NUC_10.L_CORE X_NUC_59.L_CORE 0.003741
K_536 X_NUC_11.L_CORE X_NUC_12.L_CORE 0.207973
K_537 X_NUC_11.L_CORE X_NUC_13.L_CORE 0.005255
K_538 X_NUC_11.L_CORE X_NUC_14.L_CORE 0.005195
K_539 X_NUC_11.L_CORE X_NUC_15.L_CORE 0.005275
K_540 X_NUC_11.L_CORE X_NUC_16.L_CORE 0.005159
K_541 X_NUC_11.L_CORE X_NUC_17.L_CORE 0.006953
K_542 X_NUC_11.L_CORE X_NUC_18.L_CORE 0.006739
K_543 X_NUC_11.L_CORE X_NUC_19.L_CORE 0.006782
K_544 X_NUC_11.L_CORE X_NUC_20.L_CORE 0.006829
K_545 X_NUC_11.L_CORE X_NUC_21.L_CORE 0.008818
K_546 X_NUC_11.L_CORE X_NUC_22.L_CORE 0.008965
K_547 X_NUC_11.L_CORE X_NUC_23.L_CORE 0.008913
K_548 X_NUC_11.L_CORE X_NUC_24.L_CORE 0.008623
K_549 X_NUC_11.L_CORE X_NUC_25.L_CORE 0.004425
K_550 X_NUC_11.L_CORE X_NUC_26.L_CORE 0.004353
K_551 X_NUC_11.L_CORE X_NUC_27.L_CORE 0.004393
K_552 X_NUC_11.L_CORE X_NUC_28.L_CORE 0.004343
K_553 X_NUC_11.L_CORE X_NUC_29.L_CORE 0.009234
K_554 X_NUC_11.L_CORE X_NUC_30.L_CORE 0.009098
K_555 X_NUC_11.L_CORE X_NUC_31.L_CORE 0.008851
K_556 X_NUC_11.L_CORE X_NUC_32.L_CORE 0.009023
K_557 X_NUC_11.L_CORE X_NUC_33.L_CORE 0.004980
K_558 X_NUC_11.L_CORE X_NUC_34.L_CORE 0.004965
K_559 X_NUC_11.L_CORE X_NUC_35.L_CORE 0.004976
K_560 X_NUC_11.L_CORE X_NUC_36.L_CORE 0.004880
K_561 X_NUC_11.L_CORE X_NUC_37.L_CORE 0.004700
K_562 X_NUC_11.L_CORE X_NUC_38.L_CORE 0.004616
K_563 X_NUC_11.L_CORE X_NUC_39.L_CORE 0.004619
K_564 X_NUC_11.L_CORE X_NUC_40.L_CORE 0.004608
K_565 X_NUC_11.L_CORE X_NUC_41.L_CORE 0.006677
K_566 X_NUC_11.L_CORE X_NUC_42.L_CORE 0.006701
K_567 X_NUC_11.L_CORE X_NUC_43.L_CORE 0.006565
K_568 X_NUC_11.L_CORE X_NUC_44.L_CORE 0.006523
K_569 X_NUC_11.L_CORE X_NUC_45.L_CORE 0.004242
K_570 X_NUC_11.L_CORE X_NUC_46.L_CORE 0.004203
K_571 X_NUC_11.L_CORE X_NUC_47.L_CORE 0.004204
K_572 X_NUC_11.L_CORE X_NUC_48.L_CORE 0.004158
K_573 X_NUC_11.L_CORE X_NUC_49.L_CORE 0.004973
K_574 X_NUC_11.L_CORE X_NUC_50.L_CORE 0.004924
K_575 X_NUC_11.L_CORE X_NUC_51.L_CORE 0.004879
K_576 X_NUC_11.L_CORE X_NUC_52.L_CORE 0.004869
K_577 X_NUC_11.L_CORE X_NUC_53.L_CORE 0.007522
K_578 X_NUC_11.L_CORE X_NUC_54.L_CORE 0.004856
K_579 X_NUC_11.L_CORE X_NUC_55.L_CORE 0.017673
K_580 X_NUC_11.L_CORE X_NUC_56.L_CORE 0.004098
K_581 X_NUC_11.L_CORE X_NUC_57.L_CORE 0.004948
K_582 X_NUC_11.L_CORE X_NUC_58.L_CORE 0.005281
K_583 X_NUC_11.L_CORE X_NUC_59.L_CORE 0.003747
K_584 X_NUC_12.L_CORE X_NUC_13.L_CORE 0.005375
K_585 X_NUC_12.L_CORE X_NUC_14.L_CORE 0.005312
K_586 X_NUC_12.L_CORE X_NUC_15.L_CORE 0.005396
K_587 X_NUC_12.L_CORE X_NUC_16.L_CORE 0.005275
K_588 X_NUC_12.L_CORE X_NUC_17.L_CORE 0.006900
K_589 X_NUC_12.L_CORE X_NUC_18.L_CORE 0.006691
K_590 X_NUC_12.L_CORE X_NUC_19.L_CORE 0.006730
K_591 X_NUC_12.L_CORE X_NUC_20.L_CORE 0.006782
K_592 X_NUC_12.L_CORE X_NUC_21.L_CORE 0.009120
K_593 X_NUC_12.L_CORE X_NUC_22.L_CORE 0.009283
K_594 X_NUC_12.L_CORE X_NUC_23.L_CORE 0.009216
K_595 X_NUC_12.L_CORE X_NUC_24.L_CORE 0.008913
K_596 X_NUC_12.L_CORE X_NUC_25.L_CORE 0.004476
K_597 X_NUC_12.L_CORE X_NUC_26.L_CORE 0.004402
K_598 X_NUC_12.L_CORE X_NUC_27.L_CORE 0.004442
K_599 X_NUC_12.L_CORE X_NUC_28.L_CORE 0.004393
K_600 X_NUC_12.L_CORE X_NUC_29.L_CORE 0.009041