* Applied Vacuum Engineering (AVE) - SPICE Netlist
* Element: Copper-64 (Z=29, A=64)
* Auto-generated topological mutual impedance array
* Nodes: 64



* -----------------------------------------------------------------
* NUCLEON (Baseline 6^3_2 Topological Defect)
* -----------------------------------------------------------------
.SUBCKT NUCLEON IN OUT
L_CORE IN OUT 1uH
C_CORE IN OUT 1pF
.ENDS NUCLEON



* -----------------------------------------------------------------
* MACROSCOPIC TOPOLOGY (Nucleon Array)
* -----------------------------------------------------------------
V_STIM NODE_1 0 AC 1 PULSE(0 100k 10n 1n 1n 50n 100n)

X_NUC_1 NODE_1 0 NUCLEON
X_NUC_2 NODE_2 0 NUCLEON
X_NUC_3 NODE_3 0 NUCLEON
X_NUC_4 NODE_4 0 NUCLEON
X_NUC_5 NODE_5 0 NUCLEON
X_NUC_6 NODE_6 0 NUCLEON
X_NUC_7 NODE_7 0 NUCLEON
X_NUC_8 NODE_8 0 NUCLEON
X_NUC_9 NODE_9 0 NUCLEON
X_NUC_10 NODE_10 0 NUCLEON
X_NUC_11 NODE_11 0 NUCLEON
X_NUC_12 NODE_12 0 NUCLEON
X_NUC_13 NODE_13 0 NUCLEON
X_NUC_14 NODE_14 0 NUCLEON
X_NUC_15 NODE_15 0 NUCLEON
X_NUC_16 NODE_16 0 NUCLEON
X_NUC_17 NODE_17 0 NUCLEON
X_NUC_18 NODE_18 0 NUCLEON
X_NUC_19 NODE_19 0 NUCLEON
X_NUC_20 NODE_20 0 NUCLEON
X_NUC_21 NODE_21 0 NUCLEON
X_NUC_22 NODE_22 0 NUCLEON
X_NUC_23 NODE_23 0 NUCLEON
X_NUC_24 NODE_24 0 NUCLEON
X_NUC_25 NODE_25 0 NUCLEON
X_NUC_26 NODE_26 0 NUCLEON
X_NUC_27 NODE_27 0 NUCLEON
X_NUC_28 NODE_28 0 NUCLEON
X_NUC_29 NODE_29 0 NUCLEON
X_NUC_30 NODE_30 0 NUCLEON
X_NUC_31 NODE_31 0 NUCLEON
X_NUC_32 NODE_32 0 NUCLEON
X_NUC_33 NODE_33 0 NUCLEON
X_NUC_34 NODE_34 0 NUCLEON
X_NUC_35 NODE_35 0 NUCLEON
X_NUC_36 NODE_36 0 NUCLEON
X_NUC_37 NODE_37 0 NUCLEON
X_NUC_38 NODE_38 0 NUCLEON
X_NUC_39 NODE_39 0 NUCLEON
X_NUC_40 NODE_40 0 NUCLEON
X_NUC_41 NODE_41 0 NUCLEON
X_NUC_42 NODE_42 0 NUCLEON
X_NUC_43 NODE_43 0 NUCLEON
X_NUC_44 NODE_44 0 NUCLEON
X_NUC_45 NODE_45 0 NUCLEON
X_NUC_46 NODE_46 0 NUCLEON
X_NUC_47 NODE_47 0 NUCLEON
X_NUC_48 NODE_48 0 NUCLEON
X_NUC_49 NODE_49 0 NUCLEON
X_NUC_50 NODE_50 0 NUCLEON
X_NUC_51 NODE_51 0 NUCLEON
X_NUC_52 NODE_52 0 NUCLEON
X_NUC_53 NODE_53 0 NUCLEON
X_NUC_54 NODE_54 0 NUCLEON
X_NUC_55 NODE_55 0 NUCLEON
X_NUC_56 NODE_56 0 NUCLEON
X_NUC_57 NODE_57 0 NUCLEON
X_NUC_58 NODE_58 0 NUCLEON
X_NUC_59 NODE_59 0 NUCLEON
X_NUC_60 NODE_60 0 NUCLEON
X_NUC_61 NODE_61 0 NUCLEON
X_NUC_62 NODE_62 0 NUCLEON
X_NUC_63 NODE_63 0 NUCLEON
X_NUC_64 NODE_64 0 NUCLEON


* -----------------------------------------------------------------
* SPATIAL MUTUAL INDUCTANCE (K-FACTORS)
* -----------------------------------------------------------------
K_1 X_NUC_1.L_CORE X_NUC_2.L_CORE 0.207973
K_2 X_NUC_1.L_CORE X_NUC_3.L_CORE 0.207973
K_3 X_NUC_1.L_CORE X_NUC_4.L_CORE 0.207973
K_4 X_NUC_1.L_CORE X_NUC_5.L_CORE 0.008275
K_5 X_NUC_1.L_CORE X_NUC_6.L_CORE 0.007977
K_6 X_NUC_1.L_CORE X_NUC_7.L_CORE 0.008039
K_7 X_NUC_1.L_CORE X_NUC_8.L_CORE 0.008133
K_8 X_NUC_1.L_CORE X_NUC_9.L_CORE 0.008923
K_9 X_NUC_1.L_CORE X_NUC_10.L_CORE 0.009061
K_10 X_NUC_1.L_CORE X_NUC_11.L_CORE 0.008737
K_11 X_NUC_1.L_CORE X_NUC_12.L_CORE 0.009067
K_12 X_NUC_1.L_CORE X_NUC_13.L_CORE 0.009409
K_13 X_NUC_1.L_CORE X_NUC_14.L_CORE 0.009212
K_14 X_NUC_1.L_CORE X_NUC_15.L_CORE 0.009302
K_15 X_NUC_1.L_CORE X_NUC_16.L_CORE 0.009018
K_16 X_NUC_1.L_CORE X_NUC_17.L_CORE 0.005461
K_17 X_NUC_1.L_CORE X_NUC_18.L_CORE 0.005380
K_18 X_NUC_1.L_CORE X_NUC_19.L_CORE 0.005331
K_19 X_NUC_1.L_CORE X_NUC_20.L_CORE 0.005430
K_20 X_NUC_1.L_CORE X_NUC_21.L_CORE 0.007798
K_21 X_NUC_1.L_CORE X_NUC_22.L_CORE 0.008004
K_22 X_NUC_1.L_CORE X_NUC_23.L_CORE 0.007739
K_23 X_NUC_1.L_CORE X_NUC_24.L_CORE 0.007754
K_24 X_NUC_1.L_CORE X_NUC_25.L_CORE 0.005407
K_25 X_NUC_1.L_CORE X_NUC_26.L_CORE 0.005299
K_26 X_NUC_1.L_CORE X_NUC_27.L_CORE 0.005306
K_27 X_NUC_1.L_CORE X_NUC_28.L_CORE 0.005284
K_28 X_NUC_1.L_CORE X_NUC_29.L_CORE 0.004934
K_29 X_NUC_1.L_CORE X_NUC_30.L_CORE 0.004935
K_30 X_NUC_1.L_CORE X_NUC_31.L_CORE 0.004839
K_31 X_NUC_1.L_CORE X_NUC_32.L_CORE 0.004926
K_32 X_NUC_1.L_CORE X_NUC_33.L_CORE 0.005923
K_33 X_NUC_1.L_CORE X_NUC_34.L_CORE 0.005939
K_34 X_NUC_1.L_CORE X_NUC_35.L_CORE 0.005867
K_35 X_NUC_1.L_CORE X_NUC_36.L_CORE 0.005790
K_36 X_NUC_1.L_CORE X_NUC_37.L_CORE 0.004269
K_37 X_NUC_1.L_CORE X_NUC_38.L_CORE 0.004215
K_38 X_NUC_1.L_CORE X_NUC_39.L_CORE 0.004185
K_39 X_NUC_1.L_CORE X_NUC_40.L_CORE 0.004213
K_40 X_NUC_1.L_CORE X_NUC_41.L_CORE 0.004762
K_41 X_NUC_1.L_CORE X_NUC_42.L_CORE 0.004798
K_42 X_NUC_1.L_CORE X_NUC_43.L_CORE 0.004694
K_43 X_NUC_1.L_CORE X_NUC_44.L_CORE 0.004730
K_44 X_NUC_1.L_CORE X_NUC_45.L_CORE 0.004463
K_45 X_NUC_1.L_CORE X_NUC_46.L_CORE 0.004428
K_46 X_NUC_1.L_CORE X_NUC_47.L_CORE 0.004397
K_47 X_NUC_1.L_CORE X_NUC_48.L_CORE 0.004375
K_48 X_NUC_1.L_CORE X_NUC_49.L_CORE 0.003952
K_49 X_NUC_1.L_CORE X_NUC_50.L_CORE 0.003935
K_50 X_NUC_1.L_CORE X_NUC_51.L_CORE 0.003882
K_51 X_NUC_1.L_CORE X_NUC_52.L_CORE 0.003914
K_52 X_NUC_1.L_CORE X_NUC_53.L_CORE 0.004175
K_53 X_NUC_1.L_CORE X_NUC_54.L_CORE 0.004176
K_54 X_NUC_1.L_CORE X_NUC_55.L_CORE 0.004116
K_55 X_NUC_1.L_CORE X_NUC_56.L_CORE 0.004118
K_56 X_NUC_1.L_CORE X_NUC_57.L_CORE 0.030167
K_57 X_NUC_1.L_CORE X_NUC_58.L_CORE 0.005998
K_58 X_NUC_1.L_CORE X_NUC_59.L_CORE 0.006164
K_59 X_NUC_1.L_CORE X_NUC_60.L_CORE 0.005906
K_60 X_NUC_1.L_CORE X_NUC_61.L_CORE 0.003991
K_61 X_NUC_1.L_CORE X_NUC_62.L_CORE 0.004740
K_62 X_NUC_1.L_CORE X_NUC_63.L_CORE 0.003769
K_63 X_NUC_1.L_CORE X_NUC_64.L_CORE 0.003541
K_64 X_NUC_2.L_CORE X_NUC_3.L_CORE 0.207973
K_65 X_NUC_2.L_CORE X_NUC_4.L_CORE 0.207973
K_66 X_NUC_2.L_CORE X_NUC_5.L_CORE 0.008596
K_67 X_NUC_2.L_CORE X_NUC_6.L_CORE 0.008275
K_68 X_NUC_2.L_CORE X_NUC_7.L_CORE 0.008338
K_69 X_NUC_2.L_CORE X_NUC_8.L_CORE 0.008444
K_70 X_NUC_2.L_CORE X_NUC_9.L_CORE 0.008776
K_71 X_NUC_2.L_CORE X_NUC_10.L_CORE 0.008923
K_72 X_NUC_2.L_CORE X_NUC_11.L_CORE 0.008606
K_73 X_NUC_2.L_CORE X_NUC_12.L_CORE 0.008920
K_74 X_NUC_2.L_CORE X_NUC_13.L_CORE 0.009599
K_75 X_NUC_2.L_CORE X_NUC_14.L_CORE 0.009409
K_76 X_NUC_2.L_CORE X_NUC_15.L_CORE 0.009495
K_77 X_NUC_2.L_CORE X_NUC_16.L_CORE 0.009194
K_78 X_NUC_2.L_CORE X_NUC_17.L_CORE 0.005541
K_79 X_NUC_2.L_CORE X_NUC_18.L_CORE 0.005461
K_80 X_NUC_2.L_CORE X_NUC_19.L_CORE 0.005407
K_81 X_NUC_2.L_CORE X_NUC_20.L_CORE 0.005511
K_82 X_NUC_2.L_CORE X_NUC_21.L_CORE 0.007598
K_83 X_NUC_2.L_CORE X_NUC_22.L_CORE 0.007798
K_84 X_NUC_2.L_CORE X_NUC_23.L_CORE 0.007548
K_85 X_NUC_2.L_CORE X_NUC_24.L_CORE 0.007562
K_86 X_NUC_2.L_CORE X_NUC_25.L_CORE 0.005519
K_87 X_NUC_2.L_CORE X_NUC_26.L_CORE 0.005407
K_88 X_NUC_2.L_CORE X_NUC_27.L_CORE 0.005413
K_89 X_NUC_2.L_CORE X_NUC_28.L_CORE 0.005390
K_90 X_NUC_2.L_CORE X_NUC_29.L_CORE 0.004930
K_91 X_NUC_2.L_CORE X_NUC_30.L_CORE 0.004934
K_92 X_NUC_2.L_CORE X_NUC_31.L_CORE 0.004836
K_93 X_NUC_2.L_CORE X_NUC_32.L_CORE 0.004924
K_94 X_NUC_2.L_CORE X_NUC_33.L_CORE 0.005901
K_95 X_NUC_2.L_CORE X_NUC_34.L_CORE 0.005923
K_96 X_NUC_2.L_CORE X_NUC_35.L_CORE 0.005848
K_97 X_NUC_2.L_CORE X_NUC_36.L_CORE 0.005772
K_98 X_NUC_2.L_CORE X_NUC_37.L_CORE 0.004324
K_99 X_NUC_2.L_CORE X_NUC_38.L_CORE 0.004269
K_100 X_NUC_2.L_CORE X_NUC_39.L_CORE 0.004237
K_101 X_NUC_2.L_CORE X_NUC_40.L_CORE 0.004267
K_102 X_NUC_2.L_CORE X_NUC_41.L_CORE 0.004724
K_103 X_NUC_2.L_CORE X_NUC_42.L_CORE 0.004762
K_104 X_NUC_2.L_CORE X_NUC_43.L_CORE 0.004659
K_105 X_NUC_2.L_CORE X_NUC_44.L_CORE 0.004694
K_106 X_NUC_2.L_CORE X_NUC_45.L_CORE 0.004496
K_107 X_NUC_2.L_CORE X_NUC_46.L_CORE 0.004463
K_108 X_NUC_2.L_CORE X_NUC_47.L_CORE 0.004429
K_109 X_NUC_2.L_CORE X_NUC_48.L_CORE 0.004407
K_110 X_NUC_2.L_CORE X_NUC_49.L_CORE 0.003967
K_111 X_NUC_2.L_CORE X_NUC_50.L_CORE 0.003952
K_112 X_NUC_2.L_CORE X_NUC_51.L_CORE 0.003897
K_113 X_NUC_2.L_CORE X_NUC_52.L_CORE 0.003929
K_114 X_NUC_2.L_CORE X_NUC_53.L_CORE 0.004172
K_115 X_NUC_2.L_CORE X_NUC_54.L_CORE 0.004175
K_116 X_NUC_2.L_CORE X_NUC_55.L_CORE 0.004114
K_117 X_NUC_2.L_CORE X_NUC_56.L_CORE 0.004116
K_118 X_NUC_2.L_CORE X_NUC_57.L_CORE 0.027751
K_119 X_NUC_2.L_CORE X_NUC_58.L_CORE 0.006169
K_120 X_NUC_2.L_CORE X_NUC_59.L_CORE 0.006077
K_121 X_NUC_2.L_CORE X_NUC_60.L_CORE 0.005961
K_122 X_NUC_2.L_CORE X_NUC_61.L_CORE 0.004029
K_123 X_NUC_2.L_CORE X_NUC_62.L_CORE 0.004685
K_124 X_NUC_2.L_CORE X_NUC_63.L_CORE 0.003806
K_125 X_NUC_2.L_CORE X_NUC_64.L_CORE 0.003543
K_126 X_NUC_3.L_CORE X_NUC_4.L_CORE 0.207973
K_127 X_NUC_3.L_CORE X_NUC_5.L_CORE 0.008520
K_128 X_NUC_3.L_CORE X_NUC_6.L_CORE 0.008202
K_129 X_NUC_3.L_CORE X_NUC_7.L_CORE 0.008275
K_130 X_NUC_3.L_CORE X_NUC_8.L_CORE 0.008372
K_131 X_NUC_3.L_CORE X_NUC_9.L_CORE 0.009104
K_132 X_NUC_3.L_CORE X_NUC_10.L_CORE 0.009259
K_133 X_NUC_3.L_CORE X_NUC_11.L_CORE 0.008923
K_134 X_NUC_3.L_CORE X_NUC_12.L_CORE 0.009266
K_135 X_NUC_3.L_CORE X_NUC_13.L_CORE 0.009500
K_136 X_NUC_3.L_CORE X_NUC_14.L_CORE 0.009306
K_137 X_NUC_3.L_CORE X_NUC_15.L_CORE 0.009409
K_138 X_NUC_3.L_CORE X_NUC_16.L_CORE 0.009107
K_139 X_NUC_3.L_CORE X_NUC_17.L_CORE 0.005597
K_140 X_NUC_3.L_CORE X_NUC_18.L_CORE 0.005512
K_141 X_NUC_3.L_CORE X_NUC_19.L_CORE 0.005461
K_142 X_NUC_3.L_CORE X_NUC_20.L_CORE 0.005566
K_143 X_NUC_3.L_CORE X_NUC_21.L_CORE 0.007848
K_144 X_NUC_3.L_CORE X_NUC_22.L_CORE 0.008063
K_145 X_NUC_3.L_CORE X_NUC_23.L_CORE 0.007798
K_146 X_NUC_3.L_CORE X_NUC_24.L_CORE 0.007808
K_147 X_NUC_3.L_CORE X_NUC_25.L_CORE 0.005512
K_148 X_NUC_3.L_CORE X_NUC_26.L_CORE 0.005398
K_149 X_NUC_3.L_CORE X_NUC_27.L_CORE 0.005407
K_150 X_NUC_3.L_CORE X_NUC_28.L_CORE 0.005383
K_151 X_NUC_3.L_CORE X_NUC_29.L_CORE 0.005032
K_152 X_NUC_3.L_CORE X_NUC_30.L_CORE 0.005035
K_153 X_NUC_3.L_CORE X_NUC_31.L_CORE 0.004934
K_154 X_NUC_3.L_CORE X_NUC_32.L_CORE 0.005025
K_155 X_NUC_3.L_CORE X_NUC_33.L_CORE 0.005975
K_156 X_NUC_3.L_CORE X_NUC_34.L_CORE 0.005995
K_157 X_NUC_3.L_CORE X_NUC_35.L_CORE 0.005923
K_158 X_NUC_3.L_CORE X_NUC_36.L_CORE 0.005842
K_159 X_NUC_3.L_CORE X_NUC_37.L_CORE 0.004357
K_160 X_NUC_3.L_CORE X_NUC_38.L_CORE 0.004300
K_161 X_NUC_3.L_CORE X_NUC_39.L_CORE 0.004269
K_162 X_NUC_3.L_CORE X_NUC_40.L_CORE 0.004299
K_163 X_NUC_3.L_CORE X_NUC_41.L_CORE 0.004830
K_164 X_NUC_3.L_CORE X_NUC_42.L_CORE 0.004869
K_165 X_NUC_3.L_CORE X_NUC_43.L_CORE 0.004762
K_166 X_NUC_3.L_CORE X_NUC_44.L_CORE 0.004798
K_167 X_NUC_3.L_CORE X_NUC_45.L_CORE 0.004530
K_168 X_NUC_3.L_CORE X_NUC_46.L_CORE 0.004495
K_169 X_NUC_3.L_CORE X_NUC_47.L_CORE 0.004463
K_170 X_NUC_3.L_CORE X_NUC_48.L_CORE 0.004439
K_171 X_NUC_3.L_CORE X_NUC_49.L_CORE 0.004024
K_172 X_NUC_3.L_CORE X_NUC_50.L_CORE 0.004007
K_173 X_NUC_3.L_CORE X_NUC_51.L_CORE 0.003952
K_174 X_NUC_3.L_CORE X_NUC_52.L_CORE 0.003984
K_175 X_NUC_3.L_CORE X_NUC_53.L_CORE 0.004235
K_176 X_NUC_3.L_CORE X_NUC_54.L_CORE 0.004237
K_177 X_NUC_3.L_CORE X_NUC_55.L_CORE 0.004175
K_178 X_NUC_3.L_CORE X_NUC_56.L_CORE 0.004177
K_179 X_NUC_3.L_CORE X_NUC_57.L_CORE 0.026411
K_180 X_NUC_3.L_CORE X_NUC_58.L_CORE 0.006118
K_181 X_NUC_3.L_CORE X_NUC_59.L_CORE 0.006241
K_182 X_NUC_3.L_CORE X_NUC_60.L_CORE 0.005943
K_183 X_NUC_3.L_CORE X_NUC_61.L_CORE 0.004067
K_184 X_NUC_3.L_CORE X_NUC_62.L_CORE 0.004778
K_185 X_NUC_3.L_CORE X_NUC_63.L_CORE 0.003824
K_186 X_NUC_3.L_CORE X_NUC_64.L_CORE 0.003594
K_187 X_NUC_4.L_CORE X_NUC_5.L_CORE 0.008411
K_188 X_NUC_4.L_CORE X_NUC_6.L_CORE 0.008104
K_189 X_NUC_4.L_CORE X_NUC_7.L_CORE 0.008169
K_190 X_NUC_4.L_CORE X_NUC_8.L_CORE 0.008275
K_191 X_NUC_4.L_CORE X_NUC_9.L_CORE 0.008770
K_192 X_NUC_4.L_CORE X_NUC_10.L_CORE 0.008909
K_193 X_NUC_4.L_CORE X_NUC_11.L_CORE 0.008601
K_194 X_NUC_4.L_CORE X_NUC_12.L_CORE 0.008923
K_195 X_NUC_4.L_CORE X_NUC_13.L_CORE 0.009834
K_196 X_NUC_4.L_CORE X_NUC_14.L_CORE 0.009619
K_197 X_NUC_4.L_CORE X_NUC_15.L_CORE 0.009722
K_198 X_NUC_4.L_CORE X_NUC_16.L_CORE 0.009409
K_199 X_NUC_4.L_CORE X_NUC_17.L_CORE 0.005488
K_200 X_NUC_4.L_CORE X_NUC_18.L_CORE 0.005408
K_201 X_NUC_4.L_CORE X_NUC_19.L_CORE 0.005358
K_202 X_NUC_4.L_CORE X_NUC_20.L_CORE 0.005461
K_203 X_NUC_4.L_CORE X_NUC_21.L_CORE 0.007833
K_204 X_NUC_4.L_CORE X_NUC_22.L_CORE 0.008047
K_205 X_NUC_4.L_CORE X_NUC_23.L_CORE 0.007778
K_206 X_NUC_4.L_CORE X_NUC_24.L_CORE 0.007798
K_207 X_NUC_4.L_CORE X_NUC_25.L_CORE 0.005536
K_208 X_NUC_4.L_CORE X_NUC_26.L_CORE 0.005421
K_209 X_NUC_4.L_CORE X_NUC_27.L_CORE 0.005429
K_210 X_NUC_4.L_CORE X_NUC_28.L_CORE 0.005407
K_211 X_NUC_4.L_CORE X_NUC_29.L_CORE 0.004939
K_212 X_NUC_4.L_CORE X_NUC_30.L_CORE 0.004941
K_213 X_NUC_4.L_CORE X_NUC_31.L_CORE 0.004845
K_214 X_NUC_4.L_CORE X_NUC_32.L_CORE 0.004934
K_215 X_NUC_4.L_CORE X_NUC_33.L_CORE 0.006059
K_216 X_NUC_4.L_CORE X_NUC_34.L_CORE 0.006080
K_217 X_NUC_4.L_CORE X_NUC_35.L_CORE 0.006002
K_218 X_NUC_4.L_CORE X_NUC_36.L_CORE 0.005923
K_219 X_NUC_4.L_CORE X_NUC_37.L_CORE 0.004325
K_220 X_NUC_4.L_CORE X_NUC_38.L_CORE 0.004270
K_221 X_NUC_4.L_CORE X_NUC_39.L_CORE 0.004239
K_222 X_NUC_4.L_CORE X_NUC_40.L_CORE 0.004269
K_223 X_NUC_4.L_CORE X_NUC_41.L_CORE 0.004791
K_224 X_NUC_4.L_CORE X_NUC_42.L_CORE 0.004829
K_225 X_NUC_4.L_CORE X_NUC_43.L_CORE 0.004724
K_226 X_NUC_4.L_CORE X_NUC_44.L_CORE 0.004762
K_227 X_NUC_4.L_CORE X_NUC_45.L_CORE 0.004554
K_228 X_NUC_4.L_CORE X_NUC_46.L_CORE 0.004519
K_229 X_NUC_4.L_CORE X_NUC_47.L_CORE 0.004485
K_230 X_NUC_4.L_CORE X_NUC_48.L_CORE 0.004463
K_231 X_NUC_4.L_CORE X_NUC_49.L_CORE 0.003990
K_232 X_NUC_4.L_CORE X_NUC_50.L_CORE 0.003973
K_233 X_NUC_4.L_CORE X_NUC_51.L_CORE 0.003919
K_234 X_NUC_4.L_CORE X_NUC_52.L_CORE 0.003952
K_235 X_NUC_4.L_CORE X_NUC_53.L_CORE 0.004232
K_236 X_NUC_4.L_CORE X_NUC_54.L_CORE 0.004234
K_237 X_NUC_4.L_CORE X_NUC_55.L_CORE 0.004171
K_238 X_NUC_4.L_CORE X_NUC_56.L_CORE 0.004175
K_239 X_NUC_4.L_CORE X_NUC_57.L_CORE 0.028468
K_240 X_NUC_4.L_CORE X_NUC_58.L_CORE 0.006076
K_241 X_NUC_4.L_CORE X_NUC_59.L_CORE 0.006096
K_242 X_NUC_4.L_CORE X_NUC_60.L_CORE 0.006071
K_243 X_NUC_4.L_CORE X_NUC_61.L_CORE 0.004015
K_244 X_NUC_4.L_CORE X_NUC_62.L_CORE 0.004777
K_245 X_NUC_4.L_CORE X_NUC_63.L_CORE 0.003832
K_246 X_NUC_4.L_CORE X_NUC_64.L_CORE 0.003570
K_247 X_NUC_5.L_CORE X_NUC_6.L_CORE 0.207973
K_248 X_NUC_5.L_CORE X_NUC_7.L_CORE 0.207973
K_249 X_NUC_5.L_CORE X_NUC_8.L_CORE 0.207973
K_250 X_NUC_5.L_CORE X_NUC_9.L_CORE 0.005972
K_251 X_NUC_5.L_CORE X_NUC_10.L_CORE 0.006135
K_252 X_NUC_5.L_CORE X_NUC_11.L_CORE 0.006005
K_253 X_NUC_5.L_CORE X_NUC_12.L_CORE 0.006069
K_254 X_NUC_5.L_CORE X_NUC_13.L_CORE 0.007331
K_255 X_NUC_5.L_CORE X_NUC_14.L_CORE 0.007452
K_256 X_NUC_5.L_CORE X_NUC_15.L_CORE 0.007449
K_257 X_NUC_5.L_CORE X_NUC_16.L_CORE 0.007232
K_258 X_NUC_5.L_CORE X_NUC_17.L_CORE 0.009048
K_259 X_NUC_5.L_CORE X_NUC_18.L_CORE 0.009077
K_260 X_NUC_5.L_CORE X_NUC_19.L_CORE 0.008764
K_261 X_NUC_5.L_CORE X_NUC_20.L_CORE 0.009089
K_262 X_NUC_5.L_CORE X_NUC_21.L_CORE 0.004594
K_263 X_NUC_5.L_CORE X_NUC_22.L_CORE 0.004690
K_264 X_NUC_5.L_CORE X_NUC_23.L_CORE 0.004624
K_265 X_NUC_5.L_CORE X_NUC_24.L_CORE 0.004609
K_266 X_NUC_5.L_CORE X_NUC_25.L_CORE 0.008434
K_267 X_NUC_5.L_CORE X_NUC_26.L_CORE 0.008338
K_268 X_NUC_5.L_CORE X_NUC_27.L_CORE 0.008295
K_269 X_NUC_5.L_CORE X_NUC_28.L_CORE 0.008115
K_270 X_NUC_5.L_CORE X_NUC_29.L_CORE 0.004976
K_271 X_NUC_5.L_CORE X_NUC_30.L_CORE 0.005046
K_272 X_NUC_5.L_CORE X_NUC_31.L_CORE 0.004928
K_273 X_NUC_5.L_CORE X_NUC_32.L_CORE 0.004998
K_274 X_NUC_5.L_CORE X_NUC_33.L_CORE 0.004562
K_275 X_NUC_5.L_CORE X_NUC_34.L_CORE 0.004623
K_276 X_NUC_5.L_CORE X_NUC_35.L_CORE 0.004577
K_277 X_NUC_5.L_CORE X_NUC_36.L_CORE 0.004523
K_278 X_NUC_5.L_CORE X_NUC_37.L_CORE 0.006388
K_279 X_NUC_5.L_CORE X_NUC_38.L_CORE 0.006346
K_280 X_NUC_5.L_CORE X_NUC_39.L_CORE 0.006215
K_281 X_NUC_5.L_CORE X_NUC_40.L_CORE 0.006265
K_282 X_NUC_5.L_CORE X_NUC_41.L_CORE 0.003994
K_283 X_NUC_5.L_CORE X_NUC_42.L_CORE 0.004051
K_284 X_NUC_5.L_CORE X_NUC_43.L_CORE 0.003980
K_285 X_NUC_5.L_CORE X_NUC_44.L_CORE 0.003991
K_286 X_NUC_5.L_CORE X_NUC_45.L_CORE 0.004805
K_287 X_NUC_5.L_CORE X_NUC_46.L_CORE 0.004822
K_288 X_NUC_5.L_CORE X_NUC_47.L_CORE 0.004768
K_289 X_NUC_5.L_CORE X_NUC_48.L_CORE 0.004721
K_290 X_NUC_5.L_CORE X_NUC_49.L_CORE 0.004476
K_291 X_NUC_5.L_CORE X_NUC_50.L_CORE 0.004501
K_292 X_NUC_5.L_CORE X_NUC_51.L_CORE 0.004412
K_293 X_NUC_5.L_CORE X_NUC_52.L_CORE 0.004442
K_294 X_NUC_5.L_CORE X_NUC_53.L_CORE 0.003952
K_295 X_NUC_5.L_CORE X_NUC_54.L_CORE 0.003987
K_296 X_NUC_5.L_CORE X_NUC_55.L_CORE 0.003927
K_297 X_NUC_5.L_CORE X_NUC_56.L_CORE 0.003919
K_298 X_NUC_5.L_CORE X_NUC_57.L_CORE 0.006729
K_299 X_NUC_5.L_CORE X_NUC_58.L_CORE 0.021149
K_300 X_NUC_5.L_CORE X_NUC_59.L_CORE 0.004636
K_301 X_NUC_5.L_CORE X_NUC_60.L_CORE 0.005286
K_302 X_NUC_5.L_CORE X_NUC_61.L_CORE 0.005662
K_303 X_NUC_5.L_CORE X_NUC_62.L_CORE 0.003608
K_304 X_NUC_5.L_CORE X_NUC_63.L_CORE 0.004648
K_305 X_NUC_5.L_CORE X_NUC_64.L_CORE 0.003681
K_306 X_NUC_6.L_CORE X_NUC_7.L_CORE 0.207973
K_307 X_NUC_6.L_CORE X_NUC_8.L_CORE 0.207973
K_308 X_NUC_6.L_CORE X_NUC_9.L_CORE 0.005817
K_309 X_NUC_6.L_CORE X_NUC_10.L_CORE 0.005972
K_310 X_NUC_6.L_CORE X_NUC_11.L_CORE 0.005850
K_311 X_NUC_6.L_CORE X_NUC_12.L_CORE 0.005908
K_312 X_NUC_6.L_CORE X_NUC_13.L_CORE 0.007206
K_313 X_NUC_6.L_CORE X_NUC_14.L_CORE 0.007331
K_314 X_NUC_6.L_CORE X_NUC_15.L_CORE 0.007323
K_315 X_NUC_6.L_CORE X_NUC_16.L_CORE 0.007117
K_316 X_NUC_6.L_CORE X_NUC_17.L_CORE 0.009002
K_317 X_NUC_6.L_CORE X_NUC_18.L_CORE 0.009048
K_318 X_NUC_6.L_CORE X_NUC_19.L_CORE 0.008729
K_319 X_NUC_6.L_CORE X_NUC_20.L_CORE 0.009051
K_320 X_NUC_6.L_CORE X_NUC_21.L_CORE 0.004502
K_321 X_NUC_6.L_CORE X_NUC_22.L_CORE 0.004594
K_322 X_NUC_6.L_CORE X_NUC_23.L_CORE 0.004530
K_323 X_NUC_6.L_CORE X_NUC_24.L_CORE 0.004516
K_324 X_NUC_6.L_CORE X_NUC_25.L_CORE 0.008520
K_325 X_NUC_6.L_CORE X_NUC_26.L_CORE 0.008434
K_326 X_NUC_6.L_CORE X_NUC_27.L_CORE 0.008384
K_327 X_NUC_6.L_CORE X_NUC_28.L_CORE 0.008198
K_328 X_NUC_6.L_CORE X_NUC_29.L_CORE 0.004906
K_329 X_NUC_6.L_CORE X_NUC_30.L_CORE 0.004976
K_330 X_NUC_6.L_CORE X_NUC_31.L_CORE 0.004862
K_331 X_NUC_6.L_CORE X_NUC_32.L_CORE 0.004929
K_332 X_NUC_6.L_CORE X_NUC_33.L_CORE 0.004502
K_333 X_NUC_6.L_CORE X_NUC_34.L_CORE 0.004562
K_334 X_NUC_6.L_CORE X_NUC_35.L_CORE 0.004517
K_335 X_NUC_6.L_CORE X_NUC_36.L_CORE 0.004465
K_336 X_NUC_6.L_CORE X_NUC_37.L_CORE 0.006425
K_337 X_NUC_6.L_CORE X_NUC_38.L_CORE 0.006388
K_338 X_NUC_6.L_CORE X_NUC_39.L_CORE 0.006252
K_339 X_NUC_6.L_CORE X_NUC_40.L_CORE 0.006303
K_340 X_NUC_6.L_CORE X_NUC_41.L_CORE 0.003938
K_341 X_NUC_6.L_CORE X_NUC_42.L_CORE 0.003994
K_342 X_NUC_6.L_CORE X_NUC_43.L_CORE 0.003925
K_343 X_NUC_6.L_CORE X_NUC_44.L_CORE 0.003935
K_344 X_NUC_6.L_CORE X_NUC_45.L_CORE 0.004786
K_345 X_NUC_6.L_CORE X_NUC_46.L_CORE 0.004805
K_346 X_NUC_6.L_CORE X_NUC_47.L_CORE 0.004750
K_347 X_NUC_6.L_CORE X_NUC_48.L_CORE 0.004704
K_348 X_NUC_6.L_CORE X_NUC_49.L_CORE 0.004450
K_349 X_NUC_6.L_CORE X_NUC_50.L_CORE 0.004476
K_350 X_NUC_6.L_CORE X_NUC_51.L_CORE 0.004388
K_351 X_NUC_6.L_CORE X_NUC_52.L_CORE 0.004418
K_352 X_NUC_6.L_CORE X_NUC_53.L_CORE 0.003916
K_353 X_NUC_6.L_CORE X_NUC_54.L_CORE 0.003952
K_354 X_NUC_6.L_CORE X_NUC_55.L_CORE 0.003893
K_355 X_NUC_6.L_CORE X_NUC_56.L_CORE 0.003884
K_356 X_NUC_6.L_CORE X_NUC_57.L_CORE 0.006540
K_357 X_NUC_6.L_CORE X_NUC_58.L_CORE 0.023534
K_358 X_NUC_6.L_CORE X_NUC_59.L_CORE 0.004546
K_359 X_NUC_6.L_CORE X_NUC_60.L_CORE 0.005244
K_360 X_NUC_6.L_CORE X_NUC_61.L_CORE 0.005671
K_361 X_NUC_6.L_CORE X_NUC_62.L_CORE 0.003558
K_362 X_NUC_6.L_CORE X_NUC_63.L_CORE 0.004661
K_363 X_NUC_6.L_CORE X_NUC_64.L_CORE 0.003656
K_364 X_NUC_7.L_CORE X_NUC_8.L_CORE 0.207973
K_365 X_NUC_7.L_CORE X_NUC_9.L_CORE 0.005934
K_366 X_NUC_7.L_CORE X_NUC_10.L_CORE 0.006097
K_367 X_NUC_7.L_CORE X_NUC_11.L_CORE 0.005972
K_368 X_NUC_7.L_CORE X_NUC_12.L_CORE 0.006032
K_369 X_NUC_7.L_CORE X_NUC_13.L_CORE 0.007209
K_370 X_NUC_7.L_CORE X_NUC_14.L_CORE 0.007329
K_371 X_NUC_7.L_CORE X_NUC_15.L_CORE 0.007331
K_372 X_NUC_7.L_CORE X_NUC_16.L_CORE 0.007120
K_373 X_NUC_7.L_CORE X_NUC_17.L_CORE 0.009343
K_374 X_NUC_7.L_CORE X_NUC_18.L_CORE 0.009385
K_375 X_NUC_7.L_CORE X_NUC_19.L_CORE 0.009048
K_376 X_NUC_7.L_CORE X_NUC_20.L_CORE 0.009397
K_377 X_NUC_7.L_CORE X_NUC_21.L_CORE 0.004563
K_378 X_NUC_7.L_CORE X_NUC_22.L_CORE 0.004659
K_379 X_NUC_7.L_CORE X_NUC_23.L_CORE 0.004594
K_380 X_NUC_7.L_CORE X_NUC_24.L_CORE 0.004579
K_381 X_NUC_7.L_CORE X_NUC_25.L_CORE 0.008566
K_382 X_NUC_7.L_CORE X_NUC_26.L_CORE 0.008472
K_383 X_NUC_7.L_CORE X_NUC_27.L_CORE 0.008434
K_384 X_NUC_7.L_CORE X_NUC_28.L_CORE 0.008239
K_385 X_NUC_7.L_CORE X_NUC_29.L_CORE 0.005021
K_386 X_NUC_7.L_CORE X_NUC_30.L_CORE 0.005095
K_387 X_NUC_7.L_CORE X_NUC_31.L_CORE 0.004976
K_388 X_NUC_7.L_CORE X_NUC_32.L_CORE 0.005046
K_389 X_NUC_7.L_CORE X_NUC_33.L_CORE 0.004545
K_390 X_NUC_7.L_CORE X_NUC_34.L_CORE 0.004607
K_391 X_NUC_7.L_CORE X_NUC_35.L_CORE 0.004562
K_392 X_NUC_7.L_CORE X_NUC_36.L_CORE 0.004508
K_393 X_NUC_7.L_CORE X_NUC_37.L_CORE 0.006570
K_394 X_NUC_7.L_CORE X_NUC_38.L_CORE 0.006527
K_395 X_NUC_7.L_CORE X_NUC_39.L_CORE 0.006388
K_396 X_NUC_7.L_CORE X_NUC_40.L_CORE 0.006439
K_397 X_NUC_7.L_CORE X_NUC_41.L_CORE 0.004006
K_398 X_NUC_7.L_CORE X_NUC_42.L_CORE 0.004064
K_399 X_NUC_7.L_CORE X_NUC_43.L_CORE 0.003994
K_400 X_NUC_7.L_CORE X_NUC_44.L_CORE 0.004003
K_401 X_NUC_7.L_CORE X_NUC_45.L_CORE 0.004840
K_402 X_NUC_7.L_CORE X_NUC_46.L_CORE 0.004859
K_403 X_NUC_7.L_CORE X_NUC_47.L_CORE 0.004805
K_404 X_NUC_7.L_CORE X_NUC_48.L_CORE 0.004756
K_405 X_NUC_7.L_CORE X_NUC_49.L_CORE 0.004541
K_406 X_NUC_7.L_CORE X_NUC_50.L_CORE 0.004568
K_407 X_NUC_7.L_CORE X_NUC_51.L_CORE 0.004476
K_408 X_NUC_7.L_CORE X_NUC_52.L_CORE 0.004507
K_409 X_NUC_7.L_CORE X_NUC_53.L_CORE 0.003975
K_410 X_NUC_7.L_CORE X_NUC_54.L_CORE 0.004012
K_411 X_NUC_7.L_CORE X_NUC_55.L_CORE 0.003952
K_412 X_NUC_7.L_CORE X_NUC_56.L_CORE 0.003942
K_413 X_NUC_7.L_CORE X_NUC_57.L_CORE 0.006555
K_414 X_NUC_7.L_CORE X_NUC_58.L_CORE 0.022358
K_415 X_NUC_7.L_CORE X_NUC_59.L_CORE 0.004626
K_416 X_NUC_7.L_CORE X_NUC_60.L_CORE 0.005249
K_417 X_NUC_7.L_CORE X_NUC_61.L_CORE 0.005801
K_418 X_NUC_7.L_CORE X_NUC_62.L_CORE 0.003604
K_419 X_NUC_7.L_CORE X_NUC_63.L_CORE 0.004708
K_420 X_NUC_7.L_CORE X_NUC_64.L_CORE 0.003718
K_421 X_NUC_8.L_CORE X_NUC_9.L_CORE 0.005875
K_422 X_NUC_8.L_CORE X_NUC_10.L_CORE 0.006033
K_423 X_NUC_8.L_CORE X_NUC_11.L_CORE 0.005909
K_424 X_NUC_8.L_CORE X_NUC_12.L_CORE 0.005972
K_425 X_NUC_8.L_CORE X_NUC_13.L_CORE 0.007424
K_426 X_NUC_8.L_CORE X_NUC_14.L_CORE 0.007555
K_427 X_NUC_8.L_CORE X_NUC_15.L_CORE 0.007552
K_428 X_NUC_8.L_CORE X_NUC_16.L_CORE 0.007331
K_429 X_NUC_8.L_CORE X_NUC_17.L_CORE 0.008990
K_430 X_NUC_8.L_CORE X_NUC_18.L_CORE 0.009028
K_431 X_NUC_8.L_CORE X_NUC_19.L_CORE 0.008719
K_432 X_NUC_8.L_CORE X_NUC_20.L_CORE 0.009048
K_433 X_NUC_8.L_CORE X_NUC_21.L_CORE 0.004577
K_434 X_NUC_8.L_CORE X_NUC_22.L_CORE 0.004674
K_435 X_NUC_8.L_CORE X_NUC_23.L_CORE 0.004608
K_436 X_NUC_8.L_CORE X_NUC_24.L_CORE 0.004594
K_437 X_NUC_8.L_CORE X_NUC_25.L_CORE 0.008779
K_438 X_NUC_8.L_CORE X_NUC_26.L_CORE 0.008677
K_439 X_NUC_8.L_CORE X_NUC_27.L_CORE 0.008629
K_440 X_NUC_8.L_CORE X_NUC_28.L_CORE 0.008434
K_441 X_NUC_8.L_CORE X_NUC_29.L_CORE 0.004950
K_442 X_NUC_8.L_CORE X_NUC_30.L_CORE 0.005021
K_443 X_NUC_8.L_CORE X_NUC_31.L_CORE 0.004905
K_444 X_NUC_8.L_CORE X_NUC_32.L_CORE 0.004976
K_445 X_NUC_8.L_CORE X_NUC_33.L_CORE 0.004600
K_446 X_NUC_8.L_CORE X_NUC_34.L_CORE 0.004663
K_447 X_NUC_8.L_CORE X_NUC_35.L_CORE 0.004616
K_448 X_NUC_8.L_CORE X_NUC_36.L_CORE 0.004562
K_449 X_NUC_8.L_CORE X_NUC_37.L_CORE 0.006512
K_450 X_NUC_8.L_CORE X_NUC_38.L_CORE 0.006471
K_451 X_NUC_8.L_CORE X_NUC_39.L_CORE 0.006332
K_452 X_NUC_8.L_CORE X_NUC_40.L_CORE 0.006388
K_453 X_NUC_8.L_CORE X_NUC_41.L_CORE 0.003995
K_454 X_NUC_8.L_CORE X_NUC_42.L_CORE 0.004053
K_455 X_NUC_8.L_CORE X_NUC_43.L_CORE 0.003982
K_456 X_NUC_8.L_CORE X_NUC_44.L_CORE 0.003994
K_457 X_NUC_8.L_CORE X_NUC_45.L_CORE 0.004890
K_458 X_NUC_8.L_CORE X_NUC_46.L_CORE 0.004910
K_459 X_NUC_8.L_CORE X_NUC_47.L_CORE 0.004853
K_460 X_NUC_8.L_CORE X_NUC_48.L_CORE 0.004805
K_461 X_NUC_8.L_CORE X_NUC_49.L_CORE 0.004509
K_462 X_NUC_8.L_CORE X_NUC_50.L_CORE 0.004535
K_463 X_NUC_8.L_CORE X_NUC_51.L_CORE 0.004444
K_464 X_NUC_8.L_CORE X_NUC_52.L_CORE 0.004476
K_465 X_NUC_8.L_CORE X_NUC_53.L_CORE 0.003984
K_466 X_NUC_8.L_CORE X_NUC_54.L_CORE 0.004021
K_467 X_NUC_8.L_CORE X_NUC_55.L_CORE 0.003960
K_468 X_NUC_8.L_CORE X_NUC_56.L_CORE 0.003952
K_469 X_NUC_8.L_CORE X_NUC_57.L_CORE 0.006635
K_470 X_NUC_8.L_CORE X_NUC_58.L_CORE 0.022254
K_471 X_NUC_8.L_CORE X_NUC_59.L_CORE 0.004583
K_472 X_NUC_8.L_CORE X_NUC_60.L_CORE 0.005364
K_473 X_NUC_8.L_CORE X_NUC_61.L_CORE 0.005686
K_474 X_NUC_8.L_CORE X_NUC_62.L_CORE 0.003612
K_475 X_NUC_8.L_CORE X_NUC_63.L_CORE 0.004742
K_476 X_NUC_8.L_CORE X_NUC_64.L_CORE 0.003701
K_477 X_NUC_9.L_CORE X_NUC_10.L_CORE 0.207973
K_478 X_NUC_9.L_CORE X_NUC_11.L_CORE 0.207973
K_479 X_NUC_9.L_CORE X_NUC_12.L_CORE 0.207973
K_480 X_NUC_9.L_CORE X_NUC_13.L_CORE 0.005078
K_481 X_NUC_9.L_CORE X_NUC_14.L_CORE 0.005021
K_482 X_NUC_9.L_CORE X_NUC_15.L_CORE 0.005095
K_483 X_NUC_9.L_CORE X_NUC_16.L_CORE 0.004988
K_484 X_NUC_9.L_CORE X_NUC_17.L_CORE 0.006522
K_485 X_NUC_9.L_CORE X_NUC_18.L_CORE 0.006334
K_486 X_NUC_9.L_CORE X_NUC_19.L_CORE 0.006370
K_487 X_NUC_9.L_CORE X_NUC_20.L_CORE 0.006414
K_488 X_NUC_9.L_CORE X_NUC_21.L_CORE 0.008601
K_489 X_NUC_9.L_CORE X_NUC_22.L_CORE 0.008742
K_490 X_NUC_9.L_CORE X_NUC_23.L_CORE 0.008687
K_491 X_NUC_9.L_CORE X_NUC_24.L_CORE 0.008414
K_492 X_NUC_9.L_CORE X_NUC_25.L_CORE 0.004201
K_493 X_NUC_9.L_CORE X_NUC_26.L_CORE 0.004135
K_494 X_NUC_9.L_CORE X_NUC_27.L_CORE 0.004171
K_495 X_NUC_9.L_CORE X_NUC_28.L_CORE 0.004127
K_496 X_NUC_9.L_CORE X_NUC_29.L_CORE 0.008663
K_497 X_NUC_9.L_CORE X_NUC_30.L_CORE 0.008542
K_498 X_NUC_9.L_CORE X_NUC_31.L_CORE 0.008323
K_499 X_NUC_9.L_CORE X_NUC_32.L_CORE 0.008492
K_500 X_NUC_9.L_CORE X_NUC_33.L_CORE 0.004755
K_501 X_NUC_9.L_CORE X_NUC_34.L_CORE 0.004742
K_502 X_NUC_9.L_CORE X_NUC_35.L_CORE 0.004753
K_503 X_NUC_9.L_CORE X_NUC_36.L_CORE 0.004664
K_504 X_NUC_9.L_CORE X_NUC_37.L_CORE 0.004394
K_505 X_NUC_9.L_CORE X_NUC_38.L_CORE 0.004319
K_506 X_NUC_9.L_CORE X_NUC_39.L_CORE 0.004323
K_507 X_NUC_9.L_CORE X_NUC_40.L_CORE 0.004317
K_508 X_NUC_9.L_CORE X_NUC_41.L_CORE 0.006567
K_509 X_NUC_9.L_CORE X_NUC_42.L_CORE 0.006604
K_510 X_NUC_9.L_CORE X_NUC_43.L_CORE 0.006461
K_511 X_NUC_9.L_CORE X_NUC_44.L_CORE 0.006429
K_512 X_NUC_9.L_CORE X_NUC_45.L_CORE 0.003924
K_513 X_NUC_9.L_CORE X_NUC_46.L_CORE 0.003889
K_514 X_NUC_9.L_CORE X_NUC_47.L_CORE 0.003894
K_515 X_NUC_9.L_CORE X_NUC_48.L_CORE 0.003852
K_516 X_NUC_9.L_CORE X_NUC_49.L_CORE 0.004805
K_517 X_NUC_9.L_CORE X_NUC_50.L_CORE 0.004753
K_518 X_NUC_9.L_CORE X_NUC_51.L_CORE 0.004708
K_519 X_NUC_9.L_CORE X_NUC_52.L_CORE 0.004715
K_520 X_NUC_9.L_CORE X_NUC_53.L_CORE 0.004463
K_521 X_NUC_9.L_CORE X_NUC_54.L_CORE 0.004447
K_522 X_NUC_9.L_CORE X_NUC_55.L_CORE 0.004413
K_523 X_NUC_9.L_CORE X_NUC_56.L_CORE 0.004377
K_524 X_NUC_9.L_CORE X_NUC_57.L_CORE 0.007559
K_525 X_NUC_9.L_CORE X_NUC_58.L_CORE 0.004738
K_526 X_NUC_9.L_CORE X_NUC_59.L_CORE 0.018733
K_527 X_NUC_9.L_CORE X_NUC_60.L_CORE 0.004002
K_528 X_NUC_9.L_CORE X_NUC_61.L_CORE 0.004780
K_529 X_NUC_9.L_CORE X_NUC_62.L_CORE 0.005396
K_530 X_NUC_9.L_CORE X_NUC_63.L_CORE 0.003445
K_531 X_NUC_9.L_CORE X_NUC_64.L_CORE 0.004331
K_532 X_NUC_10.L_CORE X_NUC_11.L_CORE 0.207973
K_533 X_NUC_10.L_CORE X_NUC_12.L_CORE 0.207973
K_534 X_NUC_10.L_CORE X_NUC_13.L_CORE 0.005134
K_535 X_NUC_10.L_CORE X_NUC_14.L_CORE 0.005078
K_536 X_NUC_10.L_CORE X_NUC_15.L_CORE 0.005153
K_537 X_NUC_10.L_CORE X_NUC_16.L_CORE 0.005042
K_538 X_NUC_10.L_CORE X_NUC_17.L_CORE 0.006721
K_539 X_NUC_10.L_CORE X_NUC_18.L_CORE 0.006522
K_540 X_NUC_10.L_CORE X_NUC_19.L_CORE 0.006558
K_541 X_NUC_10.L_CORE X_NUC_20.L_CORE 0.006606
K_542 X_NUC_10.L_CORE X_NUC_21.L_CORE 0.008453
K_543 X_NUC_10.L_CORE X_NUC_22.L_CORE 0.008601
K_544 X_NUC_10.L_CORE X_NUC_23.L_CORE 0.008542
K_545 X_NUC_10.L_CORE X_NUC_24.L_CORE 0.008282
K_546 X_NUC_10.L_CORE X_NUC_25.L_CORE 0.004268
K_547 X_NUC_10.L_CORE X_NUC_26.L_CORE 0.004201
K_548 X_NUC_10.L_CORE X_NUC_27.L_CORE 0.004238
K_549 X_NUC_10.L_CORE X_NUC_28.L_CORE 0.004192
K_550 X_NUC_10.L_CORE X_NUC_29.L_CORE 0.008772
K_551 X_NUC_10.L_CORE X_NUC_30.L_CORE 0.008663
K_552 X_NUC_10.L_CORE X_NUC_31.L_CORE 0.008427
K_553 X_NUC_10.L_CORE X_NUC_32.L_CORE 0.008602
K_554 X_NUC_10.L_CORE X_NUC_33.L_CORE 0.004765
K_555 X_NUC_10.L_CORE X_NUC_34.L_CORE 0.004755
K_556 X_NUC_10.L_CORE X_NUC_35.L_CORE 0.004765
K_557 X_NUC_10.L_CORE X_NUC_36.L_CORE 0.004675
K_558 X_NUC_10.L_CORE X_NUC_37.L_CORE 0.004472
K_559 X_NUC_10.L_CORE X_NUC_38.L_CORE 0.004394
K_560 X_NUC_10.L_CORE X_NUC_39.L_CORE 0.004398
K_561 X_NUC_10.L_CORE X_NUC_40.L_CORE 0.004391
K_562 X_NUC_10.L_CORE X_NUC_41.L_CORE 0.006524
K_563 X_NUC_10.L_CORE X_NUC_42.L_CORE 0.006567
K_564 X_NUC_10.L_CORE X_NUC_43.L_CORE 0.006424
K_565 X_NUC_10.L_CORE X_NUC_44.L_CORE 0.006392
K_566 X_NUC_10.L_CORE X_NUC_45.L_CORE 0.003959
K_567 X_NUC_10.L_CORE X_NUC_46.L_CORE 0.003924
K_568 X_NUC_10.L_CORE X_NUC_47.L_CORE 0.003929
K_569 X_NUC_10.L_CORE X_NUC_48.L_CORE 0.003886
K_570 X_NUC_10.L_CORE X_NUC_49.L_CORE 0.004856
K_571 X_NUC_10.L_CORE X_NUC_50.L_CORE 0.004805
K_572 X_NUC_10.L_CORE X_NUC_51.L_CORE 0.004757
K_573 X_NUC_10.L_CORE X_NUC_52.L_CORE 0.004764
K_574 X_NUC_10.L_CORE X_NUC_53.L_CORE 0.004477
K_575 X_NUC_10.L_CORE X_NUC_54.L_CORE 0.004463
K_576 X_NUC_10.L_CORE X_NUC_55.L_CORE 0.004428
K_577 X_NUC_10.L_CORE X_NUC_56.L_CORE 0.004391
K_578 X_NUC_10.L_CORE X_NUC_57.L_CORE 0.007603
K_579 X_NUC_10.L_CORE X_NUC_58.L_CORE 0.004843
K_580 X_NUC_10.L_CORE X_NUC_59.L_CORE 0.017646
K_581 X_NUC_10.L_CORE X_NUC_60.L_CORE 0.004032
K_582 X_NUC_10.L_CORE X_NUC_61.L_CORE 0.004870
K_583 X_NUC_10.L_CORE X_NUC_62.L_CORE 0.005345
K_584 X_NUC_10.L_CORE X_NUC_63.L_CORE 0.003482
K_585 X_NUC_10.L_CORE X_NUC_64.L_CORE 0.004352
K_586 X_NUC_11.L_CORE X_NUC_12.L_CORE 0.207973
K_587 X_NUC_11.L_CORE X_NUC_13.L_CORE 0.005058
K_588 X_NUC_11.L_CORE X_NUC_14.L_CORE 0.005003
K_589 X_NUC_11.L_CORE X_NUC_15.L_CORE 0.005078
K_590 X_NUC_11.L_CORE X_NUC_16.L_CORE 0.004970
K_591 X_NUC_11.L_CORE X_NUC_17.L_CORE 0.006679
K_592 X_NUC_11.L_CORE X_NUC_18.L_CORE 0.006481
K_593 X_NUC_11.L_CORE X_NUC_19.L_CORE 0.006522
K_594 X_NUC_11.L_CORE X_NUC_20.L_CORE 0.006566
K_595 X_NUC_11.L_CORE X_NUC_21.L_CORE 0.008504
K_596 X_NUC_11.L_CORE X_NUC_22.L_CORE 0.008647
K_597 X_NUC_11.L_CORE X_NUC_23.L_CORE 0.008601
K_598 X_NUC_11.L_CORE X_NUC_24.L_CORE 0.008330