* Applied Vacuum Engineering (AVE) - SPICE Netlist
* Element: Germanium-73 (Z=32, A=73)
* Auto-generated topological mutual impedance array
* Nodes: 73



* -----------------------------------------------------------------
* NUCLEON (Baseline 6^3_2 Topological Defect)
* -----------------------------------------------------------------
.SUBCKT NUCLEON IN OUT
L_CORE IN OUT 1uH
C_CORE IN OUT 1pF
.ENDS NUCLEON



* -----------------------------------------------------------------
* MACROSCOPIC TOPOLOGY (Nucleon Array)
* -----------------------------------------------------------------
V_STIM NODE_1 0 AC 1 PULSE(0 100k 10n 1n 1n 50n 100n)

X_NUC_1 NODE_1 0 NUCLEON
X_NUC_2 NODE_2 0 NUCLEON
X_NUC_3 NODE_3 0 NUCLEON
X_NUC_4 NODE_4 0 NUCLEON
X_NUC_5 NODE_5 0 NUCLEON
X_NUC_6 NODE_6 0 NUCLEON
X_NUC_7 NODE_7 0 NUCLEON
X_NUC_8 NODE_8 0 NUCLEON
X_NUC_9 NODE_9 0 NUCLEON
X_NUC_10 NODE_10 0 NUCLEON
X_NUC_11 NODE_11 0 NUCLEON
X_NUC_12 NODE_12 0 NUCLEON
X_NUC_13 NODE_13 0 NUCLEON
X_NUC_14 NODE_14 0 NUCLEON
X_NUC_15 NODE_15 0 NUCLEON
X_NUC_16 NODE_16 0 NUCLEON
X_NUC_17 NODE_17 0 NUCLEON
X_NUC_18 NODE_18 0 NUCLEON
X_NUC_19 NODE_19 0 NUCLEON
X_NUC_20 NODE_20 0 NUCLEON
X_NUC_21 NODE_21 0 NUCLEON
X_NUC_22 NODE_22 0 NUCLEON
X_NUC_23 NODE_23 0 NUCLEON
X_NUC_24 NODE_24 0 NUCLEON
X_NUC_25 NODE_25 0 NUCLEON
X_NUC_26 NODE_26 0 NUCLEON
X_NUC_27 NODE_27 0 NUCLEON
X_NUC_28 NODE_28 0 NUCLEON
X_NUC_29 NODE_29 0 NUCLEON
X_NUC_30 NODE_30 0 NUCLEON
X_NUC_31 NODE_31 0 NUCLEON
X_NUC_32 NODE_32 0 NUCLEON
X_NUC_33 NODE_33 0 NUCLEON
X_NUC_34 NODE_34 0 NUCLEON
X_NUC_35 NODE_35 0 NUCLEON
X_NUC_36 NODE_36 0 NUCLEON
X_NUC_37 NODE_37 0 NUCLEON
X_NUC_38 NODE_38 0 NUCLEON
X_NUC_39 NODE_39 0 NUCLEON
X_NUC_40 NODE_40 0 NUCLEON
X_NUC_41 NODE_41 0 NUCLEON
X_NUC_42 NODE_42 0 NUCLEON
X_NUC_43 NODE_43 0 NUCLEON
X_NUC_44 NODE_44 0 NUCLEON
X_NUC_45 NODE_45 0 NUCLEON
X_NUC_46 NODE_46 0 NUCLEON
X_NUC_47 NODE_47 0 NUCLEON
X_NUC_48 NODE_48 0 NUCLEON
X_NUC_49 NODE_49 0 NUCLEON
X_NUC_50 NODE_50 0 NUCLEON
X_NUC_51 NODE_51 0 NUCLEON
X_NUC_52 NODE_52 0 NUCLEON
X_NUC_53 NODE_53 0 NUCLEON
X_NUC_54 NODE_54 0 NUCLEON
X_NUC_55 NODE_55 0 NUCLEON
X_NUC_56 NODE_56 0 NUCLEON
X_NUC_57 NODE_57 0 NUCLEON
X_NUC_58 NODE_58 0 NUCLEON
X_NUC_59 NODE_59 0 NUCLEON
X_NUC_60 NODE_60 0 NUCLEON
X_NUC_61 NODE_61 0 NUCLEON
X_NUC_62 NODE_62 0 NUCLEON
X_NUC_63 NODE_63 0 NUCLEON
X_NUC_64 NODE_64 0 NUCLEON
X_NUC_65 NODE_65 0 NUCLEON
X_NUC_66 NODE_66 0 NUCLEON
X_NUC_67 NODE_67 0 NUCLEON
X_NUC_68 NODE_68 0 NUCLEON
X_NUC_69 NODE_69 0 NUCLEON
X_NUC_70 NODE_70 0 NUCLEON
X_NUC_71 NODE_71 0 NUCLEON
X_NUC_72 NODE_72 0 NUCLEON
X_NUC_73 NODE_73 0 NUCLEON


* -----------------------------------------------------------------
* SPATIAL MUTUAL INDUCTANCE (K-FACTORS)
* -----------------------------------------------------------------
K_1 X_NUC_1.L_CORE X_NUC_2.L_CORE 0.207973
K_2 X_NUC_1.L_CORE X_NUC_3.L_CORE 0.207973
K_3 X_NUC_1.L_CORE X_NUC_4.L_CORE 0.207973
K_4 X_NUC_1.L_CORE X_NUC_5.L_CORE 0.007918
K_5 X_NUC_1.L_CORE X_NUC_6.L_CORE 0.007644
K_6 X_NUC_1.L_CORE X_NUC_7.L_CORE 0.007703
K_7 X_NUC_1.L_CORE X_NUC_8.L_CORE 0.007790
K_8 X_NUC_1.L_CORE X_NUC_9.L_CORE 0.008541
K_9 X_NUC_1.L_CORE X_NUC_10.L_CORE 0.008669
K_10 X_NUC_1.L_CORE X_NUC_11.L_CORE 0.008376
K_11 X_NUC_1.L_CORE X_NUC_12.L_CORE 0.008680
K_12 X_NUC_1.L_CORE X_NUC_13.L_CORE 0.009039
K_13 X_NUC_1.L_CORE X_NUC_14.L_CORE 0.008856
K_14 X_NUC_1.L_CORE X_NUC_15.L_CORE 0.008953
K_15 X_NUC_1.L_CORE X_NUC_16.L_CORE 0.008682
K_16 X_NUC_1.L_CORE X_NUC_17.L_CORE 0.005204
K_17 X_NUC_1.L_CORE X_NUC_18.L_CORE 0.005130
K_18 X_NUC_1.L_CORE X_NUC_19.L_CORE 0.005087
K_19 X_NUC_1.L_CORE X_NUC_20.L_CORE 0.005179
K_20 X_NUC_1.L_CORE X_NUC_21.L_CORE 0.007536
K_21 X_NUC_1.L_CORE X_NUC_22.L_CORE 0.007741
K_22 X_NUC_1.L_CORE X_NUC_23.L_CORE 0.007496
K_23 X_NUC_1.L_CORE X_NUC_24.L_CORE 0.007508
K_24 X_NUC_1.L_CORE X_NUC_25.L_CORE 0.005161
K_25 X_NUC_1.L_CORE X_NUC_26.L_CORE 0.005058
K_26 X_NUC_1.L_CORE X_NUC_27.L_CORE 0.005071
K_27 X_NUC_1.L_CORE X_NUC_28.L_CORE 0.005049
K_28 X_NUC_1.L_CORE X_NUC_29.L_CORE 0.004699
K_29 X_NUC_1.L_CORE X_NUC_30.L_CORE 0.004701
K_30 X_NUC_1.L_CORE X_NUC_31.L_CORE 0.004615
K_31 X_NUC_1.L_CORE X_NUC_32.L_CORE 0.004698
K_32 X_NUC_1.L_CORE X_NUC_33.L_CORE 0.005762
K_33 X_NUC_1.L_CORE X_NUC_34.L_CORE 0.005783
K_34 X_NUC_1.L_CORE X_NUC_35.L_CORE 0.005722
K_35 X_NUC_1.L_CORE X_NUC_36.L_CORE 0.005639
K_36 X_NUC_1.L_CORE X_NUC_37.L_CORE 0.004037
K_37 X_NUC_1.L_CORE X_NUC_38.L_CORE 0.003985
K_38 X_NUC_1.L_CORE X_NUC_39.L_CORE 0.003962
K_39 X_NUC_1.L_CORE X_NUC_40.L_CORE 0.003989
K_40 X_NUC_1.L_CORE X_NUC_41.L_CORE 0.004593
K_41 X_NUC_1.L_CORE X_NUC_42.L_CORE 0.004635
K_42 X_NUC_1.L_CORE X_NUC_43.L_CORE 0.004536
K_43 X_NUC_1.L_CORE X_NUC_44.L_CORE 0.004573
K_44 X_NUC_1.L_CORE X_NUC_45.L_CORE 0.004298
K_45 X_NUC_1.L_CORE X_NUC_46.L_CORE 0.004261
K_46 X_NUC_1.L_CORE X_NUC_47.L_CORE 0.004242
K_47 X_NUC_1.L_CORE X_NUC_48.L_CORE 0.004213
K_48 X_NUC_1.L_CORE X_NUC_49.L_CORE 0.003700
K_49 X_NUC_1.L_CORE X_NUC_50.L_CORE 0.003683
K_50 X_NUC_1.L_CORE X_NUC_51.L_CORE 0.003638
K_51 X_NUC_1.L_CORE X_NUC_52.L_CORE 0.003673
K_52 X_NUC_1.L_CORE X_NUC_53.L_CORE 0.004171
K_53 X_NUC_1.L_CORE X_NUC_54.L_CORE 0.004189
K_54 X_NUC_1.L_CORE X_NUC_55.L_CORE 0.004126
K_55 X_NUC_1.L_CORE X_NUC_56.L_CORE 0.004119
K_56 X_NUC_1.L_CORE X_NUC_57.L_CORE 0.003598
K_57 X_NUC_1.L_CORE X_NUC_58.L_CORE 0.003571
K_58 X_NUC_1.L_CORE X_NUC_59.L_CORE 0.003543
K_59 X_NUC_1.L_CORE X_NUC_60.L_CORE 0.003548
K_60 X_NUC_1.L_CORE X_NUC_61.L_CORE 0.003583
K_61 X_NUC_1.L_CORE X_NUC_62.L_CORE 0.003581
K_62 X_NUC_1.L_CORE X_NUC_63.L_CORE 0.003532
K_63 X_NUC_1.L_CORE X_NUC_64.L_CORE 0.003548
K_64 X_NUC_1.L_CORE X_NUC_65.L_CORE 0.029663
K_65 X_NUC_1.L_CORE X_NUC_66.L_CORE 0.005768
K_66 X_NUC_1.L_CORE X_NUC_67.L_CORE 0.005925
K_67 X_NUC_1.L_CORE X_NUC_68.L_CORE 0.005703
K_68 X_NUC_1.L_CORE X_NUC_69.L_CORE 0.003806
K_69 X_NUC_1.L_CORE X_NUC_70.L_CORE 0.004617
K_70 X_NUC_1.L_CORE X_NUC_71.L_CORE 0.003599
K_71 X_NUC_1.L_CORE X_NUC_72.L_CORE 0.003355
K_72 X_NUC_1.L_CORE X_NUC_73.L_CORE 0.003411
K_73 X_NUC_2.L_CORE X_NUC_3.L_CORE 0.207973
K_74 X_NUC_2.L_CORE X_NUC_4.L_CORE 0.207973
K_75 X_NUC_2.L_CORE X_NUC_5.L_CORE 0.008211
K_76 X_NUC_2.L_CORE X_NUC_6.L_CORE 0.007918
K_77 X_NUC_2.L_CORE X_NUC_7.L_CORE 0.007978
K_78 X_NUC_2.L_CORE X_NUC_8.L_CORE 0.008075
K_79 X_NUC_2.L_CORE X_NUC_9.L_CORE 0.008403
K_80 X_NUC_2.L_CORE X_NUC_10.L_CORE 0.008541
K_81 X_NUC_2.L_CORE X_NUC_11.L_CORE 0.008253
K_82 X_NUC_2.L_CORE X_NUC_12.L_CORE 0.008544
K_83 X_NUC_2.L_CORE X_NUC_13.L_CORE 0.009216
K_84 X_NUC_2.L_CORE X_NUC_14.L_CORE 0.009039
K_85 X_NUC_2.L_CORE X_NUC_15.L_CORE 0.009133
K_86 X_NUC_2.L_CORE X_NUC_16.L_CORE 0.008846
K_87 X_NUC_2.L_CORE X_NUC_17.L_CORE 0.005278
K_88 X_NUC_2.L_CORE X_NUC_18.L_CORE 0.005204
K_89 X_NUC_2.L_CORE X_NUC_19.L_CORE 0.005158
K_90 X_NUC_2.L_CORE X_NUC_20.L_CORE 0.005253
K_91 X_NUC_2.L_CORE X_NUC_21.L_CORE 0.007339
K_92 X_NUC_2.L_CORE X_NUC_22.L_CORE 0.007536
K_93 X_NUC_2.L_CORE X_NUC_23.L_CORE 0.007306
K_94 X_NUC_2.L_CORE X_NUC_24.L_CORE 0.007316
K_95 X_NUC_2.L_CORE X_NUC_25.L_CORE 0.005266
K_96 X_NUC_2.L_CORE X_NUC_26.L_CORE 0.005161
K_97 X_NUC_2.L_CORE X_NUC_27.L_CORE 0.005173
K_98 X_NUC_2.L_CORE X_NUC_28.L_CORE 0.005150
K_99 X_NUC_2.L_CORE X_NUC_29.L_CORE 0.004693
K_100 X_NUC_2.L_CORE X_NUC_30.L_CORE 0.004699
K_101 X_NUC_2.L_CORE X_NUC_31.L_CORE 0.004611
K_102 X_NUC_2.L_CORE X_NUC_32.L_CORE 0.004694
K_103 X_NUC_2.L_CORE X_NUC_33.L_CORE 0.005737
K_104 X_NUC_2.L_CORE X_NUC_34.L_CORE 0.005762
K_105 X_NUC_2.L_CORE X_NUC_35.L_CORE 0.005700
K_106 X_NUC_2.L_CORE X_NUC_36.L_CORE 0.005617
K_107 X_NUC_2.L_CORE X_NUC_37.L_CORE 0.004090
K_108 X_NUC_2.L_CORE X_NUC_38.L_CORE 0.004037
K_109 X_NUC_2.L_CORE X_NUC_39.L_CORE 0.004013
K_110 X_NUC_2.L_CORE X_NUC_40.L_CORE 0.004041
K_111 X_NUC_2.L_CORE X_NUC_41.L_CORE 0.004549
K_112 X_NUC_2.L_CORE X_NUC_42.L_CORE 0.004593
K_113 X_NUC_2.L_CORE X_NUC_43.L_CORE 0.004495
K_114 X_NUC_2.L_CORE X_NUC_44.L_CORE 0.004531
K_115 X_NUC_2.L_CORE X_NUC_45.L_CORE 0.004334
K_116 X_NUC_2.L_CORE X_NUC_46.L_CORE 0.004298
K_117 X_NUC_2.L_CORE X_NUC_47.L_CORE 0.004277
K_118 X_NUC_2.L_CORE X_NUC_48.L_CORE 0.004248
K_119 X_NUC_2.L_CORE X_NUC_49.L_CORE 0.003715
K_120 X_NUC_2.L_CORE X_NUC_50.L_CORE 0.003700
K_121 X_NUC_2.L_CORE X_NUC_51.L_CORE 0.003653
K_122 X_NUC_2.L_CORE X_NUC_52.L_CORE 0.003689
K_123 X_NUC_2.L_CORE X_NUC_53.L_CORE 0.004152
K_124 X_NUC_2.L_CORE X_NUC_54.L_CORE 0.004171
K_125 X_NUC_2.L_CORE X_NUC_55.L_CORE 0.004109
K_126 X_NUC_2.L_CORE X_NUC_56.L_CORE 0.004102
K_127 X_NUC_2.L_CORE X_NUC_57.L_CORE 0.003624
K_128 X_NUC_2.L_CORE X_NUC_58.L_CORE 0.003598
K_129 X_NUC_2.L_CORE X_NUC_59.L_CORE 0.003569
K_130 X_NUC_2.L_CORE X_NUC_60.L_CORE 0.003573
K_131 X_NUC_2.L_CORE X_NUC_61.L_CORE 0.003583
K_132 X_NUC_2.L_CORE X_NUC_62.L_CORE 0.003583
K_133 X_NUC_2.L_CORE X_NUC_63.L_CORE 0.003533
K_134 X_NUC_2.L_CORE X_NUC_64.L_CORE 0.003549
K_135 X_NUC_2.L_CORE X_NUC_65.L_CORE 0.027326
K_136 X_NUC_2.L_CORE X_NUC_66.L_CORE 0.005926
K_137 X_NUC_2.L_CORE X_NUC_67.L_CORE 0.005843
K_138 X_NUC_2.L_CORE X_NUC_68.L_CORE 0.005755
K_139 X_NUC_2.L_CORE X_NUC_69.L_CORE 0.003842
K_140 X_NUC_2.L_CORE X_NUC_70.L_CORE 0.004556
K_141 X_NUC_2.L_CORE X_NUC_71.L_CORE 0.003638
K_142 X_NUC_2.L_CORE X_NUC_72.L_CORE 0.003354
K_143 X_NUC_2.L_CORE X_NUC_73.L_CORE 0.003411
K_144 X_NUC_3.L_CORE X_NUC_4.L_CORE 0.207973
K_145 X_NUC_3.L_CORE X_NUC_5.L_CORE 0.008140
K_146 X_NUC_3.L_CORE X_NUC_6.L_CORE 0.007848
K_147 X_NUC_3.L_CORE X_NUC_7.L_CORE 0.007918
K_148 X_NUC_3.L_CORE X_NUC_8.L_CORE 0.008007
K_149 X_NUC_3.L_CORE X_NUC_9.L_CORE 0.008700
K_150 X_NUC_3.L_CORE X_NUC_10.L_CORE 0.008844
K_151 X_NUC_3.L_CORE X_NUC_11.L_CORE 0.008541
K_152 X_NUC_3.L_CORE X_NUC_12.L_CORE 0.008856
K_153 X_NUC_3.L_CORE X_NUC_13.L_CORE 0.009111
K_154 X_NUC_3.L_CORE X_NUC_14.L_CORE 0.008931
K_155 X_NUC_3.L_CORE X_NUC_15.L_CORE 0.009039
K_156 X_NUC_3.L_CORE X_NUC_16.L_CORE 0.008753
K_157 X_NUC_3.L_CORE X_NUC_17.L_CORE 0.005325
K_158 X_NUC_3.L_CORE X_NUC_18.L_CORE 0.005248
K_159 X_NUC_3.L_CORE X_NUC_19.L_CORE 0.005204
K_160 X_NUC_3.L_CORE X_NUC_20.L_CORE 0.005300
K_161 X_NUC_3.L_CORE X_NUC_21.L_CORE 0.007567
K_162 X_NUC_3.L_CORE X_NUC_22.L_CORE 0.007780
K_163 X_NUC_3.L_CORE X_NUC_23.L_CORE 0.007536
K_164 X_NUC_3.L_CORE X_NUC_24.L_CORE 0.007543
K_165 X_NUC_3.L_CORE X_NUC_25.L_CORE 0.005252
K_166 X_NUC_3.L_CORE X_NUC_26.L_CORE 0.005146
K_167 X_NUC_3.L_CORE X_NUC_27.L_CORE 0.005161
K_168 X_NUC_3.L_CORE X_NUC_28.L_CORE 0.005136
K_169 X_NUC_3.L_CORE X_NUC_29.L_CORE 0.004785
K_170 X_NUC_3.L_CORE X_NUC_30.L_CORE 0.004789
K_171 X_NUC_3.L_CORE X_NUC_31.L_CORE 0.004699
K_172 X_NUC_3.L_CORE X_NUC_32.L_CORE 0.004785
K_173 X_NUC_3.L_CORE X_NUC_33.L_CORE 0.005799
K_174 X_NUC_3.L_CORE X_NUC_34.L_CORE 0.005822
K_175 X_NUC_3.L_CORE X_NUC_35.L_CORE 0.005762
K_176 X_NUC_3.L_CORE X_NUC_36.L_CORE 0.005675
K_177 X_NUC_3.L_CORE X_NUC_37.L_CORE 0.004115
K_178 X_NUC_3.L_CORE X_NUC_38.L_CORE 0.004061
K_179 X_NUC_3.L_CORE X_NUC_39.L_CORE 0.004037
K_180 X_NUC_3.L_CORE X_NUC_40.L_CORE 0.004065
K_181 X_NUC_3.L_CORE X_NUC_41.L_CORE 0.004649
K_182 X_NUC_3.L_CORE X_NUC_42.L_CORE 0.004694
K_183 X_NUC_3.L_CORE X_NUC_43.L_CORE 0.004593
K_184 X_NUC_3.L_CORE X_NUC_44.L_CORE 0.004630
K_185 X_NUC_3.L_CORE X_NUC_45.L_CORE 0.004354
K_186 X_NUC_3.L_CORE X_NUC_46.L_CORE 0.004317
K_187 X_NUC_3.L_CORE X_NUC_47.L_CORE 0.004298
K_188 X_NUC_3.L_CORE X_NUC_48.L_CORE 0.004267
K_189 X_NUC_3.L_CORE X_NUC_49.L_CORE 0.003764
K_190 X_NUC_3.L_CORE X_NUC_50.L_CORE 0.003748
K_191 X_NUC_3.L_CORE X_NUC_51.L_CORE 0.003700
K_192 X_NUC_3.L_CORE X_NUC_52.L_CORE 0.003736
K_193 X_NUC_3.L_CORE X_NUC_53.L_CORE 0.004216
K_194 X_NUC_3.L_CORE X_NUC_54.L_CORE 0.004235
K_195 X_NUC_3.L_CORE X_NUC_55.L_CORE 0.004171
K_196 X_NUC_3.L_CORE X_NUC_56.L_CORE 0.004163
K_197 X_NUC_3.L_CORE X_NUC_57.L_CORE 0.003654
K_198 X_NUC_3.L_CORE X_NUC_58.L_CORE 0.003627
K_199 X_NUC_3.L_CORE X_NUC_59.L_CORE 0.003598
K_200 X_NUC_3.L_CORE X_NUC_60.L_CORE 0.003602
K_201 X_NUC_3.L_CORE X_NUC_61.L_CORE 0.003634
K_202 X_NUC_3.L_CORE X_NUC_62.L_CORE 0.003633
K_203 X_NUC_3.L_CORE X_NUC_63.L_CORE 0.003583
K_204 X_NUC_3.L_CORE X_NUC_64.L_CORE 0.003599
K_205 X_NUC_3.L_CORE X_NUC_65.L_CORE 0.026022
K_206 X_NUC_3.L_CORE X_NUC_66.L_CORE 0.005878
K_207 X_NUC_3.L_CORE X_NUC_67.L_CORE 0.005992
K_208 X_NUC_3.L_CORE X_NUC_68.L_CORE 0.005730
K_209 X_NUC_3.L_CORE X_NUC_69.L_CORE 0.003874
K_210 X_NUC_3.L_CORE X_NUC_70.L_CORE 0.004644
K_211 X_NUC_3.L_CORE X_NUC_71.L_CORE 0.003648
K_212 X_NUC_3.L_CORE X_NUC_72.L_CORE 0.003402
K_213 X_NUC_3.L_CORE X_NUC_73.L_CORE 0.003447
K_214 X_NUC_4.L_CORE X_NUC_5.L_CORE 0.008041
K_215 X_NUC_4.L_CORE X_NUC_6.L_CORE 0.007759
K_216 X_NUC_4.L_CORE X_NUC_7.L_CORE 0.007821
K_217 X_NUC_4.L_CORE X_NUC_8.L_CORE 0.007918
K_218 X_NUC_4.L_CORE X_NUC_9.L_CORE 0.008393
K_219 X_NUC_4.L_CORE X_NUC_10.L_CORE 0.008523
K_220 X_NUC_4.L_CORE X_NUC_11.L_CORE 0.008243
K_221 X_NUC_4.L_CORE X_NUC_12.L_CORE 0.008541
K_222 X_NUC_4.L_CORE X_NUC_13.L_CORE 0.009425
K_223 X_NUC_4.L_CORE X_NUC_14.L_CORE 0.009227
K_224 X_NUC_4.L_CORE X_NUC_15.L_CORE 0.009337
K_225 X_NUC_4.L_CORE X_NUC_16.L_CORE 0.009039
K_226 X_NUC_4.L_CORE X_NUC_17.L_CORE 0.005226
K_227 X_NUC_4.L_CORE X_NUC_18.L_CORE 0.005153
K_228 X_NUC_4.L_CORE X_NUC_19.L_CORE 0.005109
K_229 X_NUC_4.L_CORE X_NUC_20.L_CORE 0.005204
K_230 X_NUC_4.L_CORE X_NUC_21.L_CORE 0.007556
K_231 X_NUC_4.L_CORE X_NUC_22.L_CORE 0.007767
K_232 X_NUC_4.L_CORE X_NUC_23.L_CORE 0.007520
K_233 X_NUC_4.L_CORE X_NUC_24.L_CORE 0.007536
K_234 X_NUC_4.L_CORE X_NUC_25.L_CORE 0.005277
K_235 X_NUC_4.L_CORE X_NUC_26.L_CORE 0.005169
K_236 X_NUC_4.L_CORE X_NUC_27.L_CORE 0.005183
K_237 X_NUC_4.L_CORE X_NUC_28.L_CORE 0.005161
K_238 X_NUC_4.L_CORE X_NUC_29.L_CORE 0.004697
K_239 X_NUC_4.L_CORE X_NUC_30.L_CORE 0.004701
K_240 X_NUC_4.L_CORE X_NUC_31.L_CORE 0.004614
K_241 X_NUC_4.L_CORE X_NUC_32.L_CORE 0.004699
K_242 X_NUC_4.L_CORE X_NUC_33.L_CORE 0.005889
K_243 X_NUC_4.L_CORE X_NUC_34.L_CORE 0.005914
K_244 X_NUC_4.L_CORE X_NUC_35.L_CORE 0.005849
K_245 X_NUC_4.L_CORE X_NUC_36.L_CORE 0.005762
K_246 X_NUC_4.L_CORE X_NUC_37.L_CORE 0.004086
K_247 X_NUC_4.L_CORE X_NUC_38.L_CORE 0.004032
K_248 X_NUC_4.L_CORE X_NUC_39.L_CORE 0.004009
K_249 X_NUC_4.L_CORE X_NUC_40.L_CORE 0.004037
K_250 X_NUC_4.L_CORE X_NUC_41.L_CORE 0.004610
K_251 X_NUC_4.L_CORE X_NUC_42.L_CORE 0.004654
K_252 X_NUC_4.L_CORE X_NUC_43.L_CORE 0.004554
K_253 X_NUC_4.L_CORE X_NUC_44.L_CORE 0.004593
K_254 X_NUC_4.L_CORE X_NUC_45.L_CORE 0.004386
K_255 X_NUC_4.L_CORE X_NUC_46.L_CORE 0.004348
K_256 X_NUC_4.L_CORE X_NUC_47.L_CORE 0.004327
K_257 X_NUC_4.L_CORE X_NUC_48.L_CORE 0.004298
K_258 X_NUC_4.L_CORE X_NUC_49.L_CORE 0.003726
K_259 X_NUC_4.L_CORE X_NUC_50.L_CORE 0.003710
K_260 X_NUC_4.L_CORE X_NUC_51.L_CORE 0.003663
K_261 X_NUC_4.L_CORE X_NUC_52.L_CORE 0.003700
K_262 X_NUC_4.L_CORE X_NUC_53.L_CORE 0.004223
K_263 X_NUC_4.L_CORE X_NUC_54.L_CORE 0.004242
K_264 X_NUC_4.L_CORE X_NUC_55.L_CORE 0.004177
K_265 X_NUC_4.L_CORE X_NUC_56.L_CORE 0.004171
K_266 X_NUC_4.L_CORE X_NUC_57.L_CORE 0.003649
K_267 X_NUC_4.L_CORE X_NUC_58.L_CORE 0.003622
K_268 X_NUC_4.L_CORE X_NUC_59.L_CORE 0.003593
K_269 X_NUC_4.L_CORE X_NUC_60.L_CORE 0.003598
K_270 X_NUC_4.L_CORE X_NUC_61.L_CORE 0.003617
K_271 X_NUC_4.L_CORE X_NUC_62.L_CORE 0.003616
K_272 X_NUC_4.L_CORE X_NUC_63.L_CORE 0.003566
K_273 X_NUC_4.L_CORE X_NUC_64.L_CORE 0.003583
K_274 X_NUC_4.L_CORE X_NUC_65.L_CORE 0.028016
K_275 X_NUC_4.L_CORE X_NUC_66.L_CORE 0.005839
K_276 X_NUC_4.L_CORE X_NUC_67.L_CORE 0.005857
K_277 X_NUC_4.L_CORE X_NUC_68.L_CORE 0.005854
K_278 X_NUC_4.L_CORE X_NUC_69.L_CORE 0.003825
K_279 X_NUC_4.L_CORE X_NUC_70.L_CORE 0.004644
K_280 X_NUC_4.L_CORE X_NUC_71.L_CORE 0.003658
K_281 X_NUC_4.L_CORE X_NUC_72.L_CORE 0.003373
K_282 X_NUC_4.L_CORE X_NUC_73.L_CORE 0.003455
K_283 X_NUC_5.L_CORE X_NUC_6.L_CORE 0.207973
K_284 X_NUC_5.L_CORE X_NUC_7.L_CORE 0.207973
K_285 X_NUC_5.L_CORE X_NUC_8.L_CORE 0.207973
K_286 X_NUC_5.L_CORE X_NUC_9.L_CORE 0.005681
K_287 X_NUC_5.L_CORE X_NUC_10.L_CORE 0.005828
K_288 X_NUC_5.L_CORE X_NUC_11.L_CORE 0.005712
K_289 X_NUC_5.L_CORE X_NUC_12.L_CORE 0.005769
K_290 X_NUC_5.L_CORE X_NUC_13.L_CORE 0.006968
K_291 X_NUC_5.L_CORE X_NUC_14.L_CORE 0.007077
K_292 X_NUC_5.L_CORE X_NUC_15.L_CORE 0.007079
K_293 X_NUC_5.L_CORE X_NUC_16.L_CORE 0.006881
K_294 X_NUC_5.L_CORE X_NUC_17.L_CORE 0.008642
K_295 X_NUC_5.L_CORE X_NUC_18.L_CORE 0.008665
K_296 X_NUC_5.L_CORE X_NUC_19.L_CORE 0.008385
K_297 X_NUC_5.L_CORE X_NUC_20.L_CORE 0.008690
K_298 X_NUC_5.L_CORE X_NUC_21.L_CORE 0.004339
K_299 X_NUC_5.L_CORE X_NUC_22.L_CORE 0.004426
K_300 X_NUC_5.L_CORE X_NUC_23.L_CORE 0.004368
K_301 X_NUC_5.L_CORE X_NUC_24.L_CORE 0.004355
K_302 X_NUC_5.L_CORE X_NUC_25.L_CORE 0.008168
K_303 X_NUC_5.L_CORE X_NUC_26.L_CORE 0.008063
K_304 X_NUC_5.L_CORE X_NUC_27.L_CORE 0.008045
K_305 X_NUC_5.L_CORE X_NUC_28.L_CORE 0.007866
K_306 X_NUC_5.L_CORE X_NUC_29.L_CORE 0.004701
K_307 X_NUC_5.L_CORE X_NUC_30.L_CORE 0.004764
K_308 X_NUC_5.L_CORE X_NUC_31.L_CORE 0.004661
K_309 X_NUC_5.L_CORE X_NUC_32.L_CORE 0.004727
K_310 X_NUC_5.L_CORE X_NUC_33.L_CORE 0.004294
K_311 X_NUC_5.L_CORE X_NUC_34.L_CORE 0.004349
K_312 X_NUC_5.L_CORE X_NUC_35.L_CORE 0.004312
K_313 X_NUC_5.L_CORE X_NUC_36.L_CORE 0.004261
K_314 X_NUC_5.L_CORE X_NUC_37.L_CORE 0.006291
K_315 X_NUC_5.L_CORE X_NUC_38.L_CORE 0.006233
K_316 X_NUC_5.L_CORE X_NUC_39.L_CORE 0.006116
K_317 X_NUC_5.L_CORE X_NUC_40.L_CORE 0.006172
K_318 X_NUC_5.L_CORE X_NUC_41.L_CORE 0.003711
K_319 X_NUC_5.L_CORE X_NUC_42.L_CORE 0.003763
K_320 X_NUC_5.L_CORE X_NUC_43.L_CORE 0.003703
K_321 X_NUC_5.L_CORE X_NUC_44.L_CORE 0.003714
K_322 X_NUC_5.L_CORE X_NUC_45.L_CORE 0.004632
K_323 X_NUC_5.L_CORE X_NUC_46.L_CORE 0.004642
K_324 X_NUC_5.L_CORE X_NUC_47.L_CORE 0.004605
K_325 X_NUC_5.L_CORE X_NUC_48.L_CORE 0.004550
K_326 X_NUC_5.L_CORE X_NUC_49.L_CORE 0.004304
K_327 X_NUC_5.L_CORE X_NUC_50.L_CORE 0.004323
K_328 X_NUC_5.L_CORE X_NUC_51.L_CORE 0.004240
K_329 X_NUC_5.L_CORE X_NUC_52.L_CORE 0.004281
K_330 X_NUC_5.L_CORE X_NUC_53.L_CORE 0.003554
K_331 X_NUC_5.L_CORE X_NUC_54.L_CORE 0.003591
K_332 X_NUC_5.L_CORE X_NUC_55.L_CORE 0.003546
K_333 X_NUC_5.L_CORE X_NUC_56.L_CORE 0.003533
K_334 X_NUC_5.L_CORE X_NUC_57.L_CORE 0.004279
K_335 X_NUC_5.L_CORE X_NUC_58.L_CORE 0.004278
K_336 X_NUC_5.L_CORE X_NUC_59.L_CORE 0.004221
K_337 X_NUC_5.L_CORE X_NUC_60.L_CORE 0.004214
K_338 X_NUC_5.L_CORE X_NUC_61.L_CORE 0.003598
K_339 X_NUC_5.L_CORE X_NUC_62.L_CORE 0.003623
K_340 X_NUC_5.L_CORE X_NUC_63.L_CORE 0.003567
K_341 X_NUC_5.L_CORE X_NUC_64.L_CORE 0.003575
K_342 X_NUC_5.L_CORE X_NUC_65.L_CORE 0.006478
K_343 X_NUC_5.L_CORE X_NUC_66.L_CORE 0.020599
K_344 X_NUC_5.L_CORE X_NUC_67.L_CORE 0.004420
K_345 X_NUC_5.L_CORE X_NUC_68.L_CORE 0.005043
K_346 X_NUC_5.L_CORE X_NUC_69.L_CORE 0.005454
K_347 X_NUC_5.L_CORE X_NUC_70.L_CORE 0.003388
K_348 X_NUC_5.L_CORE X_NUC_71.L_CORE 0.004575
K_349 X_NUC_5.L_CORE X_NUC_72.L_CORE 0.003456
K_350 X_NUC_5.L_CORE X_NUC_73.L_CORE 0.003272
K_351 X_NUC_6.L_CORE X_NUC_7.L_CORE 0.207973
K_352 X_NUC_6.L_CORE X_NUC_8.L_CORE 0.207973
K_353 X_NUC_6.L_CORE X_NUC_9.L_CORE 0.005540
K_354 X_NUC_6.L_CORE X_NUC_10.L_CORE 0.005681
K_355 X_NUC_6.L_CORE X_NUC_11.L_CORE 0.005571
K_356 X_NUC_6.L_CORE X_NUC_12.L_CORE 0.005624
K_357 X_NUC_6.L_CORE X_NUC_13.L_CORE 0.006856
K_358 X_NUC_6.L_CORE X_NUC_14.L_CORE 0.006968
K_359 X_NUC_6.L_CORE X_NUC_15.L_CORE 0.006966
K_360 X_NUC_6.L_CORE X_NUC_16.L_CORE 0.006777
K_361 X_NUC_6.L_CORE X_NUC_17.L_CORE 0.008605
K_362 X_NUC_6.L_CORE X_NUC_18.L_CORE 0.008642
K_363 X_NUC_6.L_CORE X_NUC_19.L_CORE 0.008358
K_364 X_NUC_6.L_CORE X_NUC_20.L_CORE 0.008660
K_365 X_NUC_6.L_CORE X_NUC_21.L_CORE 0.004256
K_366 X_NUC_6.L_CORE X_NUC_22.L_CORE 0.004339
K_367 X_NUC_6.L_CORE X_NUC_23.L_CORE 0.004284
K_368 X_NUC_6.L_CORE X_NUC_24.L_CORE 0.004271
K_369 X_NUC_6.L_CORE X_NUC_25.L_CORE 0.008264
K_370 X_NUC_6.L_CORE X_NUC_26.L_CORE 0.008168
K_371 X_NUC_6.L_CORE X_NUC_27.L_CORE 0.008143
K_372 X_NUC_6.L_CORE X_NUC_28.L_CORE 0.007957
K_373 X_NUC_6.L_CORE X_NUC_29.L_CORE 0.004638
K_374 X_NUC_6.L_CORE X_NUC_30.L_CORE 0.004701
K_375 X_NUC_6.L_CORE X_NUC_31.L_CORE 0.004600
K_376 X_NUC_6.L_CORE X_NUC_32.L_CORE 0.004664
K_377 X_NUC_6.L_CORE X_NUC_33.L_CORE 0.004239
K_378 X_NUC_6.L_CORE X_NUC_34.L_CORE 0.004294
K_379 X_NUC_6.L_CORE X_NUC_35.L_CORE 0.004258
K_380 X_NUC_6.L_CORE X_NUC_36.L_CORE 0.004209
K_381 X_NUC_6.L_CORE X_NUC_37.L_CORE 0.006344
K_382 X_NUC_6.L_CORE X_NUC_38.L_CORE 0.006291
K_383 X_NUC_6.L_CORE X_NUC_39.L_CORE 0.006168
K_384 X_NUC_6.L_CORE X_NUC_40.L_CORE 0.006226
K_385 X_NUC_6.L_CORE X_NUC_41.L_CORE 0.003659
K_386 X_NUC_6.L_CORE X_NUC_42.L_CORE 0.003711
K_387 X_NUC_6.L_CORE X_NUC_43.L_CORE 0.003652
K_388 X_NUC_6.L_CORE X_NUC_44.L_CORE 0.003663
K_389 X_NUC_6.L_CORE X_NUC_45.L_CORE 0.004620
K_390 X_NUC_6.L_CORE X_NUC_46.L_CORE 0.004632
K_391 X_NUC_6.L_CORE X_NUC_47.L_CORE 0.004593
K_392 X_NUC_6.L_CORE X_NUC_48.L_CORE 0.004539
K_393 X_NUC_6.L_CORE X_NUC_49.L_CORE 0.004283
K_394 X_NUC_6.L_CORE X_NUC_50.L_CORE 0.004304
K_395 X_NUC_6.L_CORE X_NUC_51.L_CORE 0.004221
K_396 X_NUC_6.L_CORE X_NUC_52.L_CORE 0.004261
K_397 X_NUC_6.L_CORE X_NUC_53.L_CORE 0.003517
K_398 X_NUC_6.L_CORE X_NUC_54.L_CORE 0.003554
K_399 X_NUC_6.L_CORE X_NUC_55.L_CORE 0.003510
K_400 X_NUC_6.L_CORE X_NUC_56.L_CORE 0.003497
K_401 X_NUC_6.L_CORE X_NUC_57.L_CORE 0.004277
K_402 X_NUC_6.L_CORE X_NUC_58.L_CORE 0.004279
K_403 X_NUC_6.L_CORE X_NUC_59.L_CORE 0.004220
K_404 X_NUC_6.L_CORE X_NUC_60.L_CORE 0.004214
K_405 X_NUC_6.L_CORE X_NUC_61.L_CORE 0.003572
K_406 X_NUC_6.L_CORE X_NUC_62.L_CORE 0.003598
K_407 X_NUC_6.L_CORE X_NUC_63.L_CORE 0.003542
K_408 X_NUC_6.L_CORE X_NUC_64.L_CORE 0.003550
K_409 X_NUC_6.L_CORE X_NUC_65.L_CORE 0.006302
K_410 X_NUC_6.L_CORE X_NUC_66.L_CORE 0.022858
K_411 X_NUC_6.L_CORE X_NUC_67.L_CORE 0.004338
K_412 X_NUC_6.L_CORE X_NUC_68.L_CORE 0.005005
K_413 X_NUC_6.L_CORE X_NUC_69.L_CORE 0.005467
K_414 X_NUC_6.L_CORE X_NUC_70.L_CORE 0.003342
K_415 X_NUC_6.L_CORE X_NUC_71.L_CORE 0.004599
K_416 X_NUC_6.L_CORE X_NUC_72.L_CORE 0.003432
K_417 X_NUC_6.L_CORE X_NUC_73.L_CORE 0.003253
K_418 X_NUC_7.L_CORE X_NUC_8.L_CORE 0.207973
K_419 X_NUC_7.L_CORE X_NUC_9.L_CORE 0.005646
K_420 X_NUC_7.L_CORE X_NUC_10.L_CORE 0.005793
K_421 X_NUC_7.L_CORE X_NUC_11.L_CORE 0.005681
K_422 X_NUC_7.L_CORE X_NUC_12.L_CORE 0.005735
K_423 X_NUC_7.L_CORE X_NUC_13.L_CORE 0.006854
K_424 X_NUC_7.L_CORE X_NUC_14.L_CORE 0.006962
K_425 X_NUC_7.L_CORE X_NUC_15.L_CORE 0.006968
K_426 X_NUC_7.L_CORE X_NUC_16.L_CORE 0.006775
K_427 X_NUC_7.L_CORE X_NUC_17.L_CORE 0.008908
K_428 X_NUC_7.L_CORE X_NUC_18.L_CORE 0.008941
K_429 X_NUC_7.L_CORE X_NUC_19.L_CORE 0.008642
K_430 X_NUC_7.L_CORE X_NUC_20.L_CORE 0.008969
K_431 X_NUC_7.L_CORE X_NUC_21.L_CORE 0.004310
K_432 X_NUC_7.L_CORE X_NUC_22.L_CORE 0.004395
K_433 X_NUC_7.L_CORE X_NUC_23.L_CORE 0.004339
K_434 X_NUC_7.L_CORE X_NUC_24.L_CORE 0.004325
K_435 X_NUC_7.L_CORE X_NUC_25.L_CORE 0.008283
K_436 X_NUC_7.L_CORE X_NUC_26.L_CORE 0.008180
K_437 X_NUC_7.L_CORE X_NUC_27.L_CORE 0.008168
K_438 X_NUC_7.L_CORE X_NUC_28.L_CORE 0.007975
K_439 X_NUC_7.L_CORE X_NUC_29.L_CORE 0.004740
K_440 X_NUC_7.L_CORE X_NUC_30.L_CORE 0.004806
K_441 X_NUC_7.L_CORE X_NUC_31.L_CORE 0.004701
K_442 X_NUC_7.L_CORE X_NUC_32.L_CORE 0.004768
K_443 X_NUC_7.L_CORE X_NUC_33.L_CORE 0.004274
K_444 X_NUC_7.L_CORE X_NUC_34.L_CORE 0.004329
K_445 X_NUC_7.L_CORE X_NUC_35.L_CORE 0.004294
K_446 X_NUC_7.L_CORE X_NUC_36.L_CORE 0.004243
K_447 X_NUC_7.L_CORE X_NUC_37.L_CORE 0.006475
K_448 X_NUC_7.L_CORE X_NUC_38.L_CORE 0.006415
K_449 X_NUC_7.L_CORE X_NUC_39.L_CORE 0.006291
K_450 X_NUC_7.L_CORE X_NUC_40.L_CORE 0.006349
K_451 X_NUC_7.L_CORE X_NUC_41.L_CORE 0.003718
K_452 X_NUC_7.L_CORE X_NUC_42.L_CORE 0.003771
K_453 X_NUC_7.L_CORE X_NUC_43.L_CORE 0.003711
K_454 X_NUC_7.L_CORE X_NUC_44.L_CORE 0.003721
K_455 X_NUC_7.L_CORE X_NUC_45.L_CORE 0.004658
K_456 X_NUC_7.L_CORE X_NUC_46.L_CORE 0.004670
K_457 X_NUC_7.L_CORE X_NUC_47.L_CORE 0.004632
K_458 X_NUC_7.L_CORE X_NUC_48.L_CORE 0.004576
K_459 X_NUC_7.L_CORE X_NUC_49.L_CORE 0.004369
K_460 X_NUC_7.L_CORE X_NUC_50.L_CORE 0.004390
K_461 X_NUC_7.L_CORE X_NUC_51.L_CORE 0.004304
K_462 X_NUC_7.L_CORE X_NUC_52.L_CORE 0.004346
K_463 X_NUC_7.L_CORE X_NUC_53.L_CORE 0.003562
K_464 X_NUC_7.L_CORE X_NUC_54.L_CORE 0.003599
K_465 X_NUC_7.L_CORE X_NUC_55.L_CORE 0.003554
K_466 X_NUC_7.L_CORE X_NUC_56.L_CORE 0.003541
K_467 X_NUC_7.L_CORE X_NUC_57.L_CORE 0.004337
K_468 X_NUC_7.L_CORE X_NUC_58.L_CORE 0.004338
K_469 X_NUC_7.L_CORE X_NUC_59.L_CORE 0.004279
K_470 X_NUC_7.L_CORE X_NUC_60.L_CORE 0.004271
K_471 X_NUC_7.L_CORE X_NUC_61.L_CORE 0.003629
K_472 X_NUC_7.L_CORE X_NUC_62.L_CORE 0.003655
K_473 X_NUC_7.L_CORE X_NUC_63.L_CORE 0.003598
K_474 X_NUC_7.L_CORE X_NUC_64.L_CORE 0.003605
K_475 X_NUC_7.L_CORE X_NUC_65.L_CORE 0.006318
K_476 X_NUC_7.L_CORE X_NUC_66.L_CORE 0.021707
K_477 X_NUC_7.L_CORE X_NUC_67.L_CORE 0.004409
K_478 X_NUC_7.L_CORE X_NUC_68.L_CORE 0.005005
K_479 X_NUC_7.L_CORE X_NUC_69.L_CORE 0.005583
K_480 X_NUC_7.L_CORE X_NUC_70.L_CORE 0.003382
K_481 X_NUC_7.L_CORE X_NUC_71.L_CORE 0.004632
K_482 X_NUC_7.L_CORE X_NUC_72.L_CORE 0.003489
K_483 X_NUC_7.L_CORE X_NUC_73.L_CORE 0.003289
K_484 X_NUC_8.L_CORE X_NUC_9.L_CORE 0.005592
K_485 X_NUC_8.L_CORE X_NUC_10.L_CORE 0.005734
K_486 X_NUC_8.L_CORE X_NUC_11.L_CORE 0.005624
K_487 X_NUC_8.L_CORE X_NUC_12.L_CORE 0.005681
K_488 X_NUC_8.L_CORE X_NUC_13.L_CORE 0.007050
K_489 X_NUC_8.L_CORE X_NUC_14.L_CORE 0.007167
K_490 X_NUC_8.L_CORE X_NUC_15.L_CORE 0.007170
K_491 X_NUC_8.L_CORE X_NUC_16.L_CORE 0.006968
K_492 X_NUC_8.L_CORE X_NUC_17.L_CORE 0.008580
K_493 X_NUC_8.L_CORE X_NUC_18.L_CORE 0.008609
K_494 X_NUC_8.L_CORE X_NUC_19.L_CORE 0.008335
K_495 X_NUC_8.L_CORE X_NUC_20.L_CORE 0.008642
K_496 X_NUC_8.L_CORE X_NUC_21.L_CORE 0.004322
K_497 X_NUC_8.L_CORE X_NUC_22.L_CORE 0.004409
K_498 X_NUC_8.L_CORE X_NUC_23.L_CORE 0.004351
K_499 X_NUC_8.L_CORE X_NUC_24.L_CORE 0.004339
K_500 X_NUC_8.L_CORE X_NUC_25.L_CORE 0.008493
K_501 X_NUC_8.L_CORE X_NUC_26.L_CORE 0.008382
K_502 X_NUC_8.L_CORE X_NUC_27.L_CORE 0.008362
K_503 X_NUC_8.L_CORE X_NUC_28.L_CORE 0.008168
K_504 X_NUC_8.L_CORE X_NUC_29.L_CORE 0.004673
K_505 X_NUC_8.L_CORE X_NUC_30.L_CORE 0.004737
K_506 X_NUC_8.L_CORE X_NUC_31.L_CORE 0.004635
K_507 X_NUC_8.L_CORE X_NUC_32.L_CORE 0.004701
K_508 X_NUC_8.L_CORE X_NUC_33.L_CORE 0.004325
K_509 X_NUC_8.L_CORE X_NUC_34.L_CORE 0.004382
K_510 X_NUC_8.L_CORE X_NUC_35.L_CORE 0.004345
K_511 X_NUC_8.L_CORE X_NUC_36.L_CORE 0.004294
K_512 X_NUC_8.L_CORE X_NUC_37.L_CORE 0.006410
K_513 X_NUC_8.L_CORE X_NUC_38.L_CORE 0.006352
K_514 X_NUC_8.L_CORE X_NUC_39.L_CORE 0.006228
K_515 X_NUC_8.L_CORE X_NUC_40.L_CORE 0.006291
K_516 X_NUC_8.L_CORE X_NUC_41.L_CORE 0.003707
K_517 X_NUC_8.L_CORE X_NUC_42.L_CORE 0.003760
K_518 X_NUC_8.L_CORE X_NUC_43.L_CORE 0.003700
K_519 X_NUC_8.L_CORE X_NUC_44.L_CORE 0.003711
K_520 X_NUC_8.L_CORE X_NUC_45.L_CORE 0.004716
K_521 X_NUC_8.L_CORE X_NUC_46.L_CORE 0.004728
K_522 X_NUC_8.L_CORE X_NUC_47.L_CORE 0.004688
K_523 X_NUC_8.L_CORE X_NUC_48.L_CORE 0.004632
K_524 X_NUC_8.L_CORE X_NUC_49.L_CORE 0.004325
K_525 X_NUC_8.L_CORE X_NUC_50.L_CORE 0.004346
K_526 X_NUC_8.L_CORE X_NUC_51.L_CORE 0.004261
K_527 X_NUC_8.L_CORE X_NUC_52.L_CORE 0.004304
K_528 X_NUC_8.L_CORE X_NUC_53.L_CORE 0.003575
K_529 X_NUC_8.L_CORE X_NUC_54.L_CORE 0.003613
K_530 X_NUC_8.L_CORE X_NUC_55.L_CORE 0.003567
K_531 X_NUC_8.L_CORE X_NUC_56.L_CORE 0.003554
K_532 X_NUC_8.L_CORE X_NUC_57.L_CORE 0.004345
K_533 X_NUC_8.L_CORE X_NUC_58.L_CORE 0.004345
K_534 X_NUC_8.L_CORE X_NUC_59.L_CORE 0.004285
K_535 X_NUC_8.L_CORE X_NUC_60.L_CORE 0.004279
K_536 X_NUC_8.L_CORE X_NUC_61.L_CORE 0.003621
K_537 X_NUC_8.L_CORE X_NUC_62.L_CORE 0.003647
K_538 X_NUC_8.L_CORE X_NUC_63.L_CORE 0.003589
K_539 X_NUC_8.L_CORE X_NUC_64.L_CORE 0.003598
K_540 X_NUC_8.L_CORE X_NUC_65.L_CORE 0.006392
K_541 X_NUC_8.L_CORE X_NUC_66.L_CORE 0.021609
K_542 X_NUC_8.L_CORE X_NUC_67.L_CORE 0.004370
K_543 X_NUC_8.L_CORE X_NUC_68.L_CORE 0.005112
K_544 X_NUC_8.L_CORE X_NUC_69.L_CORE 0.005470
K_545 X_NUC_8.L_CORE X_NUC_70.L_CORE 0.003389
K_546 X_NUC_8.L_CORE X_NUC_71.L_CORE 0.004671
K_547 X_NUC_8.L_CORE X_NUC_72.L_CORE 0.003465
K_548 X_NUC_8.L_CORE X_NUC_73.L_CORE 0.003302
K_549 X_NUC_9.L_CORE X_NUC_10.L_CORE 0.207973
K_550 X_NUC_9.L_CORE X_NUC_11.L_CORE 0.207973
K_551 X_NUC_9.L_CORE X_NUC_12.L_CORE 0.207973
K_552 X_NUC_9.L_CORE X_NUC_13.L_CORE 0.004799
K_553 X_NUC_9.L_CORE X_NUC_14.L_CORE 0.004748
K_554 X_NUC_9.L_CORE X_NUC_15.L_CORE 0.004814
K_555 X_NUC_9.L_CORE X_NUC_16.L_CORE 0.004718
K_556 X_NUC_9.L_CORE X_NUC_17.L_CORE 0.006154
K_557 X_NUC_9.L_CORE X_NUC_18.L_CORE 0.005986
K_558 X_NUC_9.L_CORE X_NUC_19.L_CORE 0.006019
K_559 X_NUC_9.L_CORE X_NUC_20.L_CORE 0.006060
K_560 X_NUC_9.L_CORE X_NUC_21.L_CORE 0.008157
K_561 X_NUC_9.L_CORE X_NUC_22.L_CORE 0.008293
K_562 X_NUC_9.L_CORE X_NUC_23.L_CORE 0.008248
K_563 X_NUC_9.L_CORE X_NUC_24.L_CORE 0.008000
K_564 X_NUC_9.L_CORE X_NUC_25.L_CORE 0.003931
K_565 X_NUC_9.L_CORE X_NUC_26.L_CORE 0.003873
K_566 X_NUC_9.L_CORE X_NUC_27.L_CORE 0.003906
K_567 X_NUC_9.L_CORE X_NUC_28.L_CORE 0.003868
K_568 X_NUC_9.L_CORE X_NUC_29.L_CORE 0.008389
K_569 X_NUC_9.L_CORE X_NUC_30.L_CORE 0.008281
K_570 X_NUC_9.L_CORE X_NUC_31.L_CORE 0.008071
K_571 X_NUC_9.L_CORE X_NUC_32.L_CORE 0.008253
K_572 X_NUC_9.L_CORE X_NUC_33.L_CORE 0.004444
K_573 X_NUC_9.L_CORE X_NUC_34.L_CORE 0.004435
K_574 X_NUC_9.L_CORE X_NUC_35.L_CORE 0.004449
K_575 X_NUC_9.L_CORE X_NUC_36.L_CORE 0.004368
K_576 X_NUC_9.L_CORE X_NUC_37.L_CORE 0.004084
K_577 X_NUC_9.L_CORE X_NUC_38.L_CORE 0.004017
K_578 X_NUC_9.L_CORE X_NUC_39.L_CORE 0.004024
K_579 X_NUC_9.L_CORE X_NUC_40.L_CORE 0.004020
K_580 X_NUC_9.L_CORE X_NUC_41.L_CORE 0.006549
K_581 X_NUC_9.L_CORE X_NUC_42.L_CORE 0.006612
K_582 X_NUC_9.L_CORE X_NUC_43.L_CORE 0.006458
K_583 X_NUC_9.L_CORE X_NUC_44.L_CORE 0.006431
K_584 X_NUC_9.L_CORE X_NUC_45.L_CORE 0.003573
K_585 X_NUC_9.L_CORE X_NUC_46.L_CORE 0.003543
K_586 X_NUC_9.L_CORE X_NUC_47.L_CORE 0.003553
K_587 X_NUC_9.L_CORE X_NUC_48.L_CORE 0.003514
K_588 X_NUC_9.L_CORE X_NUC_49.L_CORE 0.004634
K_589 X_NUC_9.L_CORE X_NUC_50.L_CORE 0.004581
K_590 X_NUC_9.L_CORE X_NUC_51.L_CORE 0.004538
K_591 X_NUC_9.L_CORE X_NUC_52.L_CORE 0.004559
K_592 X_NUC_9.L_CORE X_NUC_53.L_CORE 0.004300
K_593 X_NUC_9.L_CORE X_NUC_54.L_CORE 0.004303
K_594 X_NUC_9.L_CORE X_NUC_55.L_CORE 0.004272
K_595 X_NUC_9.L_CORE X_NUC_56.L_CORE 0.004226