* Applied Vacuum Engineering (AVE) - SPICE Netlist
* Element: Holmium-165 (Z=67, A=165)
* Auto-generated topological mutual impedance array
* Nodes: 165



* -----------------------------------------------------------------
* NUCLEON (Baseline 6^3_2 Topological Defect)
* -----------------------------------------------------------------
.SUBCKT NUCLEON IN OUT
L_CORE IN OUT 1uH
C_CORE IN OUT 1pF
.ENDS NUCLEON



* -----------------------------------------------------------------
* MACROSCOPIC TOPOLOGY (Nucleon Array)
* -----------------------------------------------------------------
V_STIM NODE_1 0 AC 1 PULSE(0 100k 10n 1n 1n 50n 100n)

X_NUC_1 NODE_1 0 NUCLEON
X_NUC_2 NODE_2 0 NUCLEON
X_NUC_3 NODE_3 0 NUCLEON
X_NUC_4 NODE_4 0 NUCLEON
X_NUC_5 NODE_5 0 NUCLEON
X_NUC_6 NODE_6 0 NUCLEON
X_NUC_7 NODE_7 0 NUCLEON
X_NUC_8 NODE_8 0 NUCLEON
X_NUC_9 NODE_9 0 NUCLEON
X_NUC_10 NODE_10 0 NUCLEON
X_NUC_11 NODE_11 0 NUCLEON
X_NUC_12 NODE_12 0 NUCLEON
X_NUC_13 NODE_13 0 NUCLEON
X_NUC_14 NODE_14 0 NUCLEON
X_NUC_15 NODE_15 0 NUCLEON
X_NUC_16 NODE_16 0 NUCLEON
X_NUC_17 NODE_17 0 NUCLEON
X_NUC_18 NODE_18 0 NUCLEON
X_NUC_19 NODE_19 0 NUCLEON
X_NUC_20 NODE_20 0 NUCLEON
X_NUC_21 NODE_21 0 NUCLEON
X_NUC_22 NODE_22 0 NUCLEON
X_NUC_23 NODE_23 0 NUCLEON
X_NUC_24 NODE_24 0 NUCLEON
X_NUC_25 NODE_25 0 NUCLEON
X_NUC_26 NODE_26 0 NUCLEON
X_NUC_27 NODE_27 0 NUCLEON
X_NUC_28 NODE_28 0 NUCLEON
X_NUC_29 NODE_29 0 NUCLEON
X_NUC_30 NODE_30 0 NUCLEON
X_NUC_31 NODE_31 0 NUCLEON
X_NUC_32 NODE_32 0 NUCLEON
X_NUC_33 NODE_33 0 NUCLEON
X_NUC_34 NODE_34 0 NUCLEON
X_NUC_35 NODE_35 0 NUCLEON
X_NUC_36 NODE_36 0 NUCLEON
X_NUC_37 NODE_37 0 NUCLEON
X_NUC_38 NODE_38 0 NUCLEON
X_NUC_39 NODE_39 0 NUCLEON
X_NUC_40 NODE_40 0 NUCLEON
X_NUC_41 NODE_41 0 NUCLEON
X_NUC_42 NODE_42 0 NUCLEON
X_NUC_43 NODE_43 0 NUCLEON
X_NUC_44 NODE_44 0 NUCLEON
X_NUC_45 NODE_45 0 NUCLEON
X_NUC_46 NODE_46 0 NUCLEON
X_NUC_47 NODE_47 0 NUCLEON
X_NUC_48 NODE_48 0 NUCLEON
X_NUC_49 NODE_49 0 NUCLEON
X_NUC_50 NODE_50 0 NUCLEON
X_NUC_51 NODE_51 0 NUCLEON
X_NUC_52 NODE_52 0 NUCLEON
X_NUC_53 NODE_53 0 NUCLEON
X_NUC_54 NODE_54 0 NUCLEON
X_NUC_55 NODE_55 0 NUCLEON
X_NUC_56 NODE_56 0 NUCLEON
X_NUC_57 NODE_57 0 NUCLEON
X_NUC_58 NODE_58 0 NUCLEON
X_NUC_59 NODE_59 0 NUCLEON
X_NUC_60 NODE_60 0 NUCLEON
X_NUC_61 NODE_61 0 NUCLEON
X_NUC_62 NODE_62 0 NUCLEON
X_NUC_63 NODE_63 0 NUCLEON
X_NUC_64 NODE_64 0 NUCLEON
X_NUC_65 NODE_65 0 NUCLEON
X_NUC_66 NODE_66 0 NUCLEON
X_NUC_67 NODE_67 0 NUCLEON
X_NUC_68 NODE_68 0 NUCLEON
X_NUC_69 NODE_69 0 NUCLEON
X_NUC_70 NODE_70 0 NUCLEON
X_NUC_71 NODE_71 0 NUCLEON
X_NUC_72 NODE_72 0 NUCLEON
X_NUC_73 NODE_73 0 NUCLEON
X_NUC_74 NODE_74 0 NUCLEON
X_NUC_75 NODE_75 0 NUCLEON
X_NUC_76 NODE_76 0 NUCLEON
X_NUC_77 NODE_77 0 NUCLEON
X_NUC_78 NODE_78 0 NUCLEON
X_NUC_79 NODE_79 0 NUCLEON
X_NUC_80 NODE_80 0 NUCLEON
X_NUC_81 NODE_81 0 NUCLEON
X_NUC_82 NODE_82 0 NUCLEON
X_NUC_83 NODE_83 0 NUCLEON
X_NUC_84 NODE_84 0 NUCLEON
X_NUC_85 NODE_85 0 NUCLEON
X_NUC_86 NODE_86 0 NUCLEON
X_NUC_87 NODE_87 0 NUCLEON
X_NUC_88 NODE_88 0 NUCLEON
X_NUC_89 NODE_89 0 NUCLEON
X_NUC_90 NODE_90 0 NUCLEON
X_NUC_91 NODE_91 0 NUCLEON
X_NUC_92 NODE_92 0 NUCLEON
X_NUC_93 NODE_93 0 NUCLEON
X_NUC_94 NODE_94 0 NUCLEON
X_NUC_95 NODE_95 0 NUCLEON
X_NUC_96 NODE_96 0 NUCLEON
X_NUC_97 NODE_97 0 NUCLEON
X_NUC_98 NODE_98 0 NUCLEON
X_NUC_99 NODE_99 0 NUCLEON
X_NUC_100 NODE_100 0 NUCLEON
X_NUC_101 NODE_101 0 NUCLEON
X_NUC_102 NODE_102 0 NUCLEON
X_NUC_103 NODE_103 0 NUCLEON
X_NUC_104 NODE_104 0 NUCLEON
X_NUC_105 NODE_105 0 NUCLEON
X_NUC_106 NODE_106 0 NUCLEON
X_NUC_107 NODE_107 0 NUCLEON
X_NUC_108 NODE_108 0 NUCLEON
X_NUC_109 NODE_109 0 NUCLEON
X_NUC_110 NODE_110 0 NUCLEON
X_NUC_111 NODE_111 0 NUCLEON
X_NUC_112 NODE_112 0 NUCLEON
X_NUC_113 NODE_113 0 NUCLEON
X_NUC_114 NODE_114 0 NUCLEON
X_NUC_115 NODE_115 0 NUCLEON
X_NUC_116 NODE_116 0 NUCLEON
X_NUC_117 NODE_117 0 NUCLEON
X_NUC_118 NODE_118 0 NUCLEON
X_NUC_119 NODE_119 0 NUCLEON
X_NUC_120 NODE_120 0 NUCLEON
X_NUC_121 NODE_121 0 NUCLEON
X_NUC_122 NODE_122 0 NUCLEON
X_NUC_123 NODE_123 0 NUCLEON
X_NUC_124 NODE_124 0 NUCLEON
X_NUC_125 NODE_125 0 NUCLEON
X_NUC_126 NODE_126 0 NUCLEON
X_NUC_127 NODE_127 0 NUCLEON
X_NUC_128 NODE_128 0 NUCLEON
X_NUC_129 NODE_129 0 NUCLEON
X_NUC_130 NODE_130 0 NUCLEON
X_NUC_131 NODE_131 0 NUCLEON
X_NUC_132 NODE_132 0 NUCLEON
X_NUC_133 NODE_133 0 NUCLEON
X_NUC_134 NODE_134 0 NUCLEON
X_NUC_135 NODE_135 0 NUCLEON
X_NUC_136 NODE_136 0 NUCLEON
X_NUC_137 NODE_137 0 NUCLEON
X_NUC_138 NODE_138 0 NUCLEON
X_NUC_139 NODE_139 0 NUCLEON
X_NUC_140 NODE_140 0 NUCLEON
X_NUC_141 NODE_141 0 NUCLEON
X_NUC_142 NODE_142 0 NUCLEON
X_NUC_143 NODE_143 0 NUCLEON
X_NUC_144 NODE_144 0 NUCLEON
X_NUC_145 NODE_145 0 NUCLEON
X_NUC_146 NODE_146 0 NUCLEON
X_NUC_147 NODE_147 0 NUCLEON
X_NUC_148 NODE_148 0 NUCLEON
X_NUC_149 NODE_149 0 NUCLEON
X_NUC_150 NODE_150 0 NUCLEON
X_NUC_151 NODE_151 0 NUCLEON
X_NUC_152 NODE_152 0 NUCLEON
X_NUC_153 NODE_153 0 NUCLEON
X_NUC_154 NODE_154 0 NUCLEON
X_NUC_155 NODE_155 0 NUCLEON
X_NUC_156 NODE_156 0 NUCLEON
X_NUC_157 NODE_157 0 NUCLEON
X_NUC_158 NODE_158 0 NUCLEON
X_NUC_159 NODE_159 0 NUCLEON
X_NUC_160 NODE_160 0 NUCLEON
X_NUC_161 NODE_161 0 NUCLEON
X_NUC_162 NODE_162 0 NUCLEON
X_NUC_163 NODE_163 0 NUCLEON
X_NUC_164 NODE_164 0 NUCLEON
X_NUC_165 NODE_165 0 NUCLEON


* -----------------------------------------------------------------
* SPATIAL MUTUAL INDUCTANCE (K-FACTORS)
* -----------------------------------------------------------------
K_1 X_NUC_1.L_CORE X_NUC_2.L_CORE 0.207973
K_2 X_NUC_1.L_CORE X_NUC_3.L_CORE 0.207973
K_3 X_NUC_1.L_CORE X_NUC_4.L_CORE 0.207973
K_4 X_NUC_1.L_CORE X_NUC_5.L_CORE 0.005505
K_5 X_NUC_1.L_CORE X_NUC_6.L_CORE 0.005371
K_6 X_NUC_1.L_CORE X_NUC_7.L_CORE 0.005405
K_7 X_NUC_1.L_CORE X_NUC_8.L_CORE 0.005448
K_8 X_NUC_1.L_CORE X_NUC_9.L_CORE 0.005945
K_9 X_NUC_1.L_CORE X_NUC_10.L_CORE 0.006013
K_10 X_NUC_1.L_CORE X_NUC_11.L_CORE 0.005878
K_11 X_NUC_1.L_CORE X_NUC_12.L_CORE 0.006029
K_12 X_NUC_1.L_CORE X_NUC_13.L_CORE 0.006372
K_13 X_NUC_1.L_CORE X_NUC_14.L_CORE 0.006279
K_14 X_NUC_1.L_CORE X_NUC_15.L_CORE 0.006356
K_15 X_NUC_1.L_CORE X_NUC_16.L_CORE 0.006204
K_16 X_NUC_1.L_CORE X_NUC_17.L_CORE 0.003571
K_17 X_NUC_1.L_CORE X_NUC_18.L_CORE 0.003535
K_18 X_NUC_1.L_CORE X_NUC_19.L_CORE 0.003519
K_19 X_NUC_1.L_CORE X_NUC_20.L_CORE 0.003565
K_20 X_NUC_1.L_CORE X_NUC_21.L_CORE 0.005417
K_21 X_NUC_1.L_CORE X_NUC_22.L_CORE 0.005543
K_22 X_NUC_1.L_CORE X_NUC_23.L_CORE 0.005428
K_23 X_NUC_1.L_CORE X_NUC_24.L_CORE 0.005430
K_24 X_NUC_1.L_CORE X_NUC_25.L_CORE 0.003560
K_25 X_NUC_1.L_CORE X_NUC_26.L_CORE 0.003506
K_26 X_NUC_1.L_CORE X_NUC_27.L_CORE 0.003524
K_27 X_NUC_1.L_CORE X_NUC_28.L_CORE 0.003510
K_28 X_NUC_1.L_CORE X_NUC_29.L_CORE 0.003221
K_29 X_NUC_1.L_CORE X_NUC_30.L_CORE 0.003224
K_30 X_NUC_1.L_CORE X_NUC_31.L_CORE 0.003186
K_31 X_NUC_1.L_CORE X_NUC_32.L_CORE 0.003231
K_32 X_NUC_1.L_CORE X_NUC_33.L_CORE 0.004221
K_33 X_NUC_1.L_CORE X_NUC_34.L_CORE 0.004241
K_34 X_NUC_1.L_CORE X_NUC_35.L_CORE 0.004227
K_35 X_NUC_1.L_CORE X_NUC_36.L_CORE 0.004163
K_36 X_NUC_1.L_CORE X_NUC_37.L_CORE 0.002719
K_37 X_NUC_1.L_CORE X_NUC_38.L_CORE 0.002691
K_38 X_NUC_1.L_CORE X_NUC_39.L_CORE 0.002687
K_39 X_NUC_1.L_CORE X_NUC_40.L_CORE 0.002702
K_40 X_NUC_1.L_CORE X_NUC_41.L_CORE 0.003263
K_41 X_NUC_1.L_CORE X_NUC_42.L_CORE 0.003297
K_42 X_NUC_1.L_CORE X_NUC_43.L_CORE 0.003247
K_43 X_NUC_1.L_CORE X_NUC_44.L_CORE 0.003271
K_44 X_NUC_1.L_CORE X_NUC_45.L_CORE 0.003036
K_45 X_NUC_1.L_CORE X_NUC_46.L_CORE 0.003011
K_46 X_NUC_1.L_CORE X_NUC_47.L_CORE 0.003018
K_47 X_NUC_1.L_CORE X_NUC_48.L_CORE 0.002992
K_48 X_NUC_1.L_CORE X_NUC_49.L_CORE 0.002459
K_49 X_NUC_1.L_CORE X_NUC_50.L_CORE 0.002450
K_50 X_NUC_1.L_CORE X_NUC_51.L_CORE 0.002433
K_51 X_NUC_1.L_CORE X_NUC_52.L_CORE 0.002455
K_52 X_NUC_1.L_CORE X_NUC_53.L_CORE 0.003155
K_53 X_NUC_1.L_CORE X_NUC_54.L_CORE 0.003184
K_54 X_NUC_1.L_CORE X_NUC_55.L_CORE 0.003153
K_55 X_NUC_1.L_CORE X_NUC_56.L_CORE 0.003137
K_56 X_NUC_1.L_CORE X_NUC_57.L_CORE 0.002396
K_57 X_NUC_1.L_CORE X_NUC_58.L_CORE 0.002374
K_58 X_NUC_1.L_CORE X_NUC_59.L_CORE 0.002373
K_59 X_NUC_1.L_CORE X_NUC_60.L_CORE 0.002373
K_60 X_NUC_1.L_CORE X_NUC_61.L_CORE 0.002456
K_61 X_NUC_1.L_CORE X_NUC_62.L_CORE 0.002465
K_62 X_NUC_1.L_CORE X_NUC_63.L_CORE 0.002437
K_63 X_NUC_1.L_CORE X_NUC_64.L_CORE 0.002457
K_64 X_NUC_1.L_CORE X_NUC_65.L_CORE 0.002686
K_65 X_NUC_1.L_CORE X_NUC_66.L_CORE 0.002683
K_66 X_NUC_1.L_CORE X_NUC_67.L_CORE 0.002677
K_67 X_NUC_1.L_CORE X_NUC_68.L_CORE 0.002655
K_68 X_NUC_1.L_CORE X_NUC_69.L_CORE 0.002122
K_69 X_NUC_1.L_CORE X_NUC_70.L_CORE 0.002110
K_70 X_NUC_1.L_CORE X_NUC_71.L_CORE 0.002101
K_71 X_NUC_1.L_CORE X_NUC_72.L_CORE 0.002112
K_72 X_NUC_1.L_CORE X_NUC_73.L_CORE 0.002490
K_73 X_NUC_1.L_CORE X_NUC_74.L_CORE 0.002508
K_74 X_NUC_1.L_CORE X_NUC_75.L_CORE 0.002481
K_75 X_NUC_1.L_CORE X_NUC_76.L_CORE 0.002484
K_76 X_NUC_1.L_CORE X_NUC_77.L_CORE 0.002222
K_77 X_NUC_1.L_CORE X_NUC_78.L_CORE 0.002209
K_78 X_NUC_1.L_CORE X_NUC_79.L_CORE 0.002207
K_79 X_NUC_1.L_CORE X_NUC_80.L_CORE 0.002199
K_80 X_NUC_1.L_CORE X_NUC_81.L_CORE 0.002056
K_81 X_NUC_1.L_CORE X_NUC_82.L_CORE 0.002055
K_82 X_NUC_1.L_CORE X_NUC_83.L_CORE 0.002039
K_83 X_NUC_1.L_CORE X_NUC_84.L_CORE 0.002052
K_84 X_NUC_1.L_CORE X_NUC_85.L_CORE 0.002349
K_85 X_NUC_1.L_CORE X_NUC_86.L_CORE 0.002356
K_86 X_NUC_1.L_CORE X_NUC_87.L_CORE 0.002341
K_87 X_NUC_1.L_CORE X_NUC_88.L_CORE 0.002331
K_88 X_NUC_1.L_CORE X_NUC_89.L_CORE 0.001952
K_89 X_NUC_1.L_CORE X_NUC_90.L_CORE 0.001941
K_90 X_NUC_1.L_CORE X_NUC_91.L_CORE 0.001935
K_91 X_NUC_1.L_CORE X_NUC_92.L_CORE 0.001938
K_92 X_NUC_1.L_CORE X_NUC_93.L_CORE 0.002075
K_93 X_NUC_1.L_CORE X_NUC_94.L_CORE 0.002082
K_94 X_NUC_1.L_CORE X_NUC_95.L_CORE 0.002062
K_95 X_NUC_1.L_CORE X_NUC_96.L_CORE 0.002070
K_96 X_NUC_1.L_CORE X_NUC_97.L_CORE 0.002074
K_97 X_NUC_1.L_CORE X_NUC_98.L_CORE 0.002069
K_98 X_NUC_1.L_CORE X_NUC_99.L_CORE 0.002062
K_99 X_NUC_1.L_CORE X_NUC_100.L_CORE 0.002054
K_100 X_NUC_1.L_CORE X_NUC_101.L_CORE 0.001844
K_101 X_NUC_1.L_CORE X_NUC_102.L_CORE 0.001840
K_102 X_NUC_1.L_CORE X_NUC_103.L_CORE 0.001829
K_103 X_NUC_1.L_CORE X_NUC_104.L_CORE 0.001837
K_104 X_NUC_1.L_CORE X_NUC_105.L_CORE 0.002039
K_105 X_NUC_1.L_CORE X_NUC_106.L_CORE 0.002045
K_106 X_NUC_1.L_CORE X_NUC_107.L_CORE 0.002029
K_107 X_NUC_1.L_CORE X_NUC_108.L_CORE 0.002028
K_108 X_NUC_1.L_CORE X_NUC_109.L_CORE 0.001848
K_109 X_NUC_1.L_CORE X_NUC_110.L_CORE 0.001841
K_110 X_NUC_1.L_CORE X_NUC_111.L_CORE 0.001835
K_111 X_NUC_1.L_CORE X_NUC_112.L_CORE 0.001834
K_112 X_NUC_1.L_CORE X_NUC_113.L_CORE 0.001824
K_113 X_NUC_1.L_CORE X_NUC_114.L_CORE 0.001825
K_114 X_NUC_1.L_CORE X_NUC_115.L_CORE 0.001811
K_115 X_NUC_1.L_CORE X_NUC_116.L_CORE 0.001818
K_116 X_NUC_1.L_CORE X_NUC_117.L_CORE 0.001896
K_117 X_NUC_1.L_CORE X_NUC_118.L_CORE 0.001896
K_118 X_NUC_1.L_CORE X_NUC_119.L_CORE 0.001887
K_119 X_NUC_1.L_CORE X_NUC_120.L_CORE 0.001883
K_120 X_NUC_1.L_CORE X_NUC_121.L_CORE 0.001735
K_121 X_NUC_1.L_CORE X_NUC_122.L_CORE 0.001731
K_122 X_NUC_1.L_CORE X_NUC_123.L_CORE 0.001722
K_123 X_NUC_1.L_CORE X_NUC_124.L_CORE 0.001725
K_124 X_NUC_1.L_CORE X_NUC_125.L_CORE 0.001792
K_125 X_NUC_1.L_CORE X_NUC_126.L_CORE 0.001794
K_126 X_NUC_1.L_CORE X_NUC_127.L_CORE 0.001781
K_127 X_NUC_1.L_CORE X_NUC_128.L_CORE 0.001783
K_128 X_NUC_1.L_CORE X_NUC_129.L_CORE 0.001743
K_129 X_NUC_1.L_CORE X_NUC_130.L_CORE 0.001741
K_130 X_NUC_1.L_CORE X_NUC_131.L_CORE 0.001732
K_131 X_NUC_1.L_CORE X_NUC_132.L_CORE 0.001732
K_132 X_NUC_1.L_CORE X_NUC_133.L_CORE 0.034949
K_133 X_NUC_1.L_CORE X_NUC_134.L_CORE 0.005113
K_134 X_NUC_1.L_CORE X_NUC_135.L_CORE 0.005604
K_135 X_NUC_1.L_CORE X_NUC_136.L_CORE 0.005911
K_136 X_NUC_1.L_CORE X_NUC_137.L_CORE 0.003360
K_137 X_NUC_1.L_CORE X_NUC_138.L_CORE 0.005134
K_138 X_NUC_1.L_CORE X_NUC_139.L_CORE 0.003338
K_139 X_NUC_1.L_CORE X_NUC_140.L_CORE 0.003048
K_140 X_NUC_1.L_CORE X_NUC_141.L_CORE 0.003983
K_141 X_NUC_1.L_CORE X_NUC_142.L_CORE 0.002562
K_142 X_NUC_1.L_CORE X_NUC_143.L_CORE 0.003098
K_143 X_NUC_1.L_CORE X_NUC_144.L_CORE 0.002858
K_144 X_NUC_1.L_CORE X_NUC_145.L_CORE 0.002325
K_145 X_NUC_1.L_CORE X_NUC_146.L_CORE 0.002993
K_146 X_NUC_1.L_CORE X_NUC_147.L_CORE 0.002259
K_147 X_NUC_1.L_CORE X_NUC_148.L_CORE 0.002329
K_148 X_NUC_1.L_CORE X_NUC_149.L_CORE 0.002538
K_149 X_NUC_1.L_CORE X_NUC_150.L_CORE 0.002005
K_150 X_NUC_1.L_CORE X_NUC_151.L_CORE 0.002364
K_151 X_NUC_1.L_CORE X_NUC_152.L_CORE 0.002098
K_152 X_NUC_1.L_CORE X_NUC_153.L_CORE 0.001948
K_153 X_NUC_1.L_CORE X_NUC_154.L_CORE 0.002226
K_154 X_NUC_1.L_CORE X_NUC_155.L_CORE 0.001844
K_155 X_NUC_1.L_CORE X_NUC_156.L_CORE 0.001968
K_156 X_NUC_1.L_CORE X_NUC_157.L_CORE 0.001961
K_157 X_NUC_1.L_CORE X_NUC_158.L_CORE 0.001746
K_158 X_NUC_1.L_CORE X_NUC_159.L_CORE 0.001933
K_159 X_NUC_1.L_CORE X_NUC_160.L_CORE 0.001748
K_160 X_NUC_1.L_CORE X_NUC_161.L_CORE 0.001729
K_161 X_NUC_1.L_CORE X_NUC_162.L_CORE 0.001796
K_162 X_NUC_1.L_CORE X_NUC_163.L_CORE 0.001642
K_163 X_NUC_1.L_CORE X_NUC_164.L_CORE 0.001699
K_164 X_NUC_1.L_CORE X_NUC_165.L_CORE 0.001651
K_165 X_NUC_2.L_CORE X_NUC_3.L_CORE 0.207973
K_166 X_NUC_2.L_CORE X_NUC_4.L_CORE 0.207973
K_167 X_NUC_2.L_CORE X_NUC_5.L_CORE 0.005647
K_168 X_NUC_2.L_CORE X_NUC_6.L_CORE 0.005505
K_169 X_NUC_2.L_CORE X_NUC_7.L_CORE 0.005540
K_170 X_NUC_2.L_CORE X_NUC_8.L_CORE 0.005587
K_171 X_NUC_2.L_CORE X_NUC_9.L_CORE 0.005876
K_172 X_NUC_2.L_CORE X_NUC_10.L_CORE 0.005945
K_173 X_NUC_2.L_CORE X_NUC_11.L_CORE 0.005812
K_174 X_NUC_2.L_CORE X_NUC_12.L_CORE 0.005959
K_175 X_NUC_2.L_CORE X_NUC_13.L_CORE 0.006463
K_176 X_NUC_2.L_CORE X_NUC_14.L_CORE 0.006372
K_177 X_NUC_2.L_CORE X_NUC_15.L_CORE 0.006449
K_178 X_NUC_2.L_CORE X_NUC_16.L_CORE 0.006290
K_179 X_NUC_2.L_CORE X_NUC_17.L_CORE 0.003607
K_180 X_NUC_2.L_CORE X_NUC_18.L_CORE 0.003571
K_181 X_NUC_2.L_CORE X_NUC_19.L_CORE 0.003554
K_182 X_NUC_2.L_CORE X_NUC_20.L_CORE 0.003602
K_183 X_NUC_2.L_CORE X_NUC_21.L_CORE 0.005295
K_184 X_NUC_2.L_CORE X_NUC_22.L_CORE 0.005417
K_185 X_NUC_2.L_CORE X_NUC_23.L_CORE 0.005307
K_186 X_NUC_2.L_CORE X_NUC_24.L_CORE 0.005310
K_187 X_NUC_2.L_CORE X_NUC_25.L_CORE 0.003615
K_188 X_NUC_2.L_CORE X_NUC_26.L_CORE 0.003560
K_189 X_NUC_2.L_CORE X_NUC_27.L_CORE 0.003578
K_190 X_NUC_2.L_CORE X_NUC_28.L_CORE 0.003564
K_191 X_NUC_2.L_CORE X_NUC_29.L_CORE 0.003217
K_192 X_NUC_2.L_CORE X_NUC_30.L_CORE 0.003221
K_193 X_NUC_2.L_CORE X_NUC_31.L_CORE 0.003182
K_194 X_NUC_2.L_CORE X_NUC_32.L_CORE 0.003227
K_195 X_NUC_2.L_CORE X_NUC_33.L_CORE 0.004200
K_196 X_NUC_2.L_CORE X_NUC_34.L_CORE 0.004221
K_197 X_NUC_2.L_CORE X_NUC_35.L_CORE 0.004207
K_198 X_NUC_2.L_CORE X_NUC_36.L_CORE 0.004143
K_199 X_NUC_2.L_CORE X_NUC_37.L_CORE 0.002748
K_200 X_NUC_2.L_CORE X_NUC_38.L_CORE 0.002719
K_201 X_NUC_2.L_CORE X_NUC_39.L_CORE 0.002715
K_202 X_NUC_2.L_CORE X_NUC_40.L_CORE 0.002730
K_203 X_NUC_2.L_CORE X_NUC_41.L_CORE 0.003229
K_204 X_NUC_2.L_CORE X_NUC_42.L_CORE 0.003263
K_205 X_NUC_2.L_CORE X_NUC_43.L_CORE 0.003214
K_206 X_NUC_2.L_CORE X_NUC_44.L_CORE 0.003237
K_207 X_NUC_2.L_CORE X_NUC_45.L_CORE 0.003060
K_208 X_NUC_2.L_CORE X_NUC_46.L_CORE 0.003036
K_209 X_NUC_2.L_CORE X_NUC_47.L_CORE 0.003042
K_210 X_NUC_2.L_CORE X_NUC_48.L_CORE 0.003016
K_211 X_NUC_2.L_CORE X_NUC_49.L_CORE 0.002468
K_212 X_NUC_2.L_CORE X_NUC_50.L_CORE 0.002459
K_213 X_NUC_2.L_CORE X_NUC_51.L_CORE 0.002441
K_214 X_NUC_2.L_CORE X_NUC_52.L_CORE 0.002464
K_215 X_NUC_2.L_CORE X_NUC_53.L_CORE 0.003127
K_216 X_NUC_2.L_CORE X_NUC_54.L_CORE 0.003155
K_217 X_NUC_2.L_CORE X_NUC_55.L_CORE 0.003124
K_218 X_NUC_2.L_CORE X_NUC_56.L_CORE 0.003109
K_219 X_NUC_2.L_CORE X_NUC_57.L_CORE 0.002418
K_220 X_NUC_2.L_CORE X_NUC_58.L_CORE 0.002396
K_221 X_NUC_2.L_CORE X_NUC_59.L_CORE 0.002395
K_222 X_NUC_2.L_CORE X_NUC_60.L_CORE 0.002395
K_223 X_NUC_2.L_CORE X_NUC_61.L_CORE 0.002447
K_224 X_NUC_2.L_CORE X_NUC_62.L_CORE 0.002456
K_225 X_NUC_2.L_CORE X_NUC_63.L_CORE 0.002428
K_226 X_NUC_2.L_CORE X_NUC_64.L_CORE 0.002448
K_227 X_NUC_2.L_CORE X_NUC_65.L_CORE 0.002688
K_228 X_NUC_2.L_CORE X_NUC_66.L_CORE 0.002686
K_229 X_NUC_2.L_CORE X_NUC_67.L_CORE 0.002679
K_230 X_NUC_2.L_CORE X_NUC_68.L_CORE 0.002657
K_231 X_NUC_2.L_CORE X_NUC_69.L_CORE 0.002134
K_232 X_NUC_2.L_CORE X_NUC_70.L_CORE 0.002122
K_233 X_NUC_2.L_CORE X_NUC_71.L_CORE 0.002113
K_234 X_NUC_2.L_CORE X_NUC_72.L_CORE 0.002124
K_235 X_NUC_2.L_CORE X_NUC_73.L_CORE 0.002473
K_236 X_NUC_2.L_CORE X_NUC_74.L_CORE 0.002490
K_237 X_NUC_2.L_CORE X_NUC_75.L_CORE 0.002463
K_238 X_NUC_2.L_CORE X_NUC_76.L_CORE 0.002467
K_239 X_NUC_2.L_CORE X_NUC_77.L_CORE 0.002236
K_240 X_NUC_2.L_CORE X_NUC_78.L_CORE 0.002222
K_241 X_NUC_2.L_CORE X_NUC_79.L_CORE 0.002221
K_242 X_NUC_2.L_CORE X_NUC_80.L_CORE 0.002213
K_243 X_NUC_2.L_CORE X_NUC_81.L_CORE 0.002057
K_244 X_NUC_2.L_CORE X_NUC_82.L_CORE 0.002056
K_245 X_NUC_2.L_CORE X_NUC_83.L_CORE 0.002040
K_246 X_NUC_2.L_CORE X_NUC_84.L_CORE 0.002053
K_247 X_NUC_2.L_CORE X_NUC_85.L_CORE 0.002341
K_248 X_NUC_2.L_CORE X_NUC_86.L_CORE 0.002349
K_249 X_NUC_2.L_CORE X_NUC_87.L_CORE 0.002334
K_250 X_NUC_2.L_CORE X_NUC_88.L_CORE 0.002324
K_251 X_NUC_2.L_CORE X_NUC_89.L_CORE 0.001963
K_252 X_NUC_2.L_CORE X_NUC_90.L_CORE 0.001952
K_253 X_NUC_2.L_CORE X_NUC_91.L_CORE 0.001946
K_254 X_NUC_2.L_CORE X_NUC_92.L_CORE 0.001949
K_255 X_NUC_2.L_CORE X_NUC_93.L_CORE 0.002067
K_256 X_NUC_2.L_CORE X_NUC_94.L_CORE 0.002075
K_257 X_NUC_2.L_CORE X_NUC_95.L_CORE 0.002055
K_258 X_NUC_2.L_CORE X_NUC_96.L_CORE 0.002063
K_259 X_NUC_2.L_CORE X_NUC_97.L_CORE 0.002079
K_260 X_NUC_2.L_CORE X_NUC_98.L_CORE 0.002074
K_261 X_NUC_2.L_CORE X_NUC_99.L_CORE 0.002067
K_262 X_NUC_2.L_CORE X_NUC_100.L_CORE 0.002059
K_263 X_NUC_2.L_CORE X_NUC_101.L_CORE 0.001849
K_264 X_NUC_2.L_CORE X_NUC_102.L_CORE 0.001844
K_265 X_NUC_2.L_CORE X_NUC_103.L_CORE 0.001833
K_266 X_NUC_2.L_CORE X_NUC_104.L_CORE 0.001841
K_267 X_NUC_2.L_CORE X_NUC_105.L_CORE 0.002032
K_268 X_NUC_2.L_CORE X_NUC_106.L_CORE 0.002039
K_269 X_NUC_2.L_CORE X_NUC_107.L_CORE 0.002023
K_270 X_NUC_2.L_CORE X_NUC_108.L_CORE 0.002021
K_271 X_NUC_2.L_CORE X_NUC_109.L_CORE 0.001856
K_272 X_NUC_2.L_CORE X_NUC_110.L_CORE 0.001848
K_273 X_NUC_2.L_CORE X_NUC_111.L_CORE 0.001842
K_274 X_NUC_2.L_CORE X_NUC_112.L_CORE 0.001841
K_275 X_NUC_2.L_CORE X_NUC_113.L_CORE 0.001823
K_276 X_NUC_2.L_CORE X_NUC_114.L_CORE 0.001824
K_277 X_NUC_2.L_CORE X_NUC_115.L_CORE 0.001810
K_278 X_NUC_2.L_CORE X_NUC_116.L_CORE 0.001817
K_279 X_NUC_2.L_CORE X_NUC_117.L_CORE 0.001896
K_280 X_NUC_2.L_CORE X_NUC_118.L_CORE 0.001896
K_281 X_NUC_2.L_CORE X_NUC_119.L_CORE 0.001886
K_282 X_NUC_2.L_CORE X_NUC_120.L_CORE 0.001883
K_283 X_NUC_2.L_CORE X_NUC_121.L_CORE 0.001740
K_284 X_NUC_2.L_CORE X_NUC_122.L_CORE 0.001735
K_285 X_NUC_2.L_CORE X_NUC_123.L_CORE 0.001727
K_286 X_NUC_2.L_CORE X_NUC_124.L_CORE 0.001730
K_287 X_NUC_2.L_CORE X_NUC_125.L_CORE 0.001790
K_288 X_NUC_2.L_CORE X_NUC_126.L_CORE 0.001792
K_289 X_NUC_2.L_CORE X_NUC_127.L_CORE 0.001779
K_290 X_NUC_2.L_CORE X_NUC_128.L_CORE 0.001781
K_291 X_NUC_2.L_CORE X_NUC_129.L_CORE 0.001745
K_292 X_NUC_2.L_CORE X_NUC_130.L_CORE 0.001743
K_293 X_NUC_2.L_CORE X_NUC_131.L_CORE 0.001734
K_294 X_NUC_2.L_CORE X_NUC_132.L_CORE 0.001734
K_295 X_NUC_2.L_CORE X_NUC_133.L_CORE 0.033912
K_296 X_NUC_2.L_CORE X_NUC_134.L_CORE 0.005236
K_297 X_NUC_2.L_CORE X_NUC_135.L_CORE 0.005537
K_298 X_NUC_2.L_CORE X_NUC_136.L_CORE 0.005988
K_299 X_NUC_2.L_CORE X_NUC_137.L_CORE 0.003393
K_300 X_NUC_2.L_CORE X_NUC_138.L_CORE 0.005018
K_301 X_NUC_2.L_CORE X_NUC_139.L_CORE 0.003388
K_302 X_NUC_2.L_CORE X_NUC_140.L_CORE 0.003043
K_303 X_NUC_2.L_CORE X_NUC_141.L_CORE 0.003962
K_304 X_NUC_2.L_CORE X_NUC_142.L_CORE 0.002588
K_305 X_NUC_2.L_CORE X_NUC_143.L_CORE 0.003066
K_306 X_NUC_2.L_CORE X_NUC_144.L_CORE 0.002880
K_307 X_NUC_2.L_CORE X_NUC_145.L_CORE 0.002333
K_308 X_NUC_2.L_CORE X_NUC_146.L_CORE 0.002966
K_309 X_NUC_2.L_CORE X_NUC_147.L_CORE 0.002279
K_310 X_NUC_2.L_CORE X_NUC_148.L_CORE 0.002320
K_311 X_NUC_2.L_CORE X_NUC_149.L_CORE 0.002540
K_312 X_NUC_2.L_CORE X_NUC_150.L_CORE 0.002016
K_313 X_NUC_2.L_CORE X_NUC_151.L_CORE 0.002347
K_314 X_NUC_2.L_CORE X_NUC_152.L_CORE 0.002111
K_315 X_NUC_2.L_CORE X_NUC_153.L_CORE 0.001949
K_316 X_NUC_2.L_CORE X_NUC_154.L_CORE 0.002219
K_317 X_NUC_2.L_CORE X_NUC_155.L_CORE 0.001855
K_318 X_NUC_2.L_CORE X_NUC_156.L_CORE 0.001961
K_319 X_NUC_2.L_CORE X_NUC_157.L_CORE 0.001966
K_320 X_NUC_2.L_CORE X_NUC_158.L_CORE 0.001750
K_321 X_NUC_2.L_CORE X_NUC_159.L_CORE 0.001927
K_322 X_NUC_2.L_CORE X_NUC_160.L_CORE 0.001755
K_323 X_NUC_2.L_CORE X_NUC_161.L_CORE 0.001728
K_324 X_NUC_2.L_CORE X_NUC_162.L_CORE 0.001796
K_325 X_NUC_2.L_CORE X_NUC_163.L_CORE 0.001647
K_326 X_NUC_2.L_CORE X_NUC_164.L_CORE 0.001697
K_327 X_NUC_2.L_CORE X_NUC_165.L_CORE 0.001653
K_328 X_NUC_3.L_CORE X_NUC_4.L_CORE 0.207973
K_329 X_NUC_3.L_CORE X_NUC_5.L_CORE 0.005608
K_330 X_NUC_3.L_CORE X_NUC_6.L_CORE 0.005467
K_331 X_NUC_3.L_CORE X_NUC_7.L_CORE 0.005505
K_332 X_NUC_3.L_CORE X_NUC_8.L_CORE 0.005549
K_333 X_NUC_3.L_CORE X_NUC_9.L_CORE 0.006011
K_334 X_NUC_3.L_CORE X_NUC_10.L_CORE 0.006083
K_335 X_NUC_3.L_CORE X_NUC_11.L_CORE 0.005945
K_336 X_NUC_3.L_CORE X_NUC_12.L_CORE 0.006100
K_337 X_NUC_3.L_CORE X_NUC_13.L_CORE 0.006382
K_338 X_NUC_3.L_CORE X_NUC_14.L_CORE 0.006292
K_339 X_NUC_3.L_CORE X_NUC_15.L_CORE 0.006372
K_340 X_NUC_3.L_CORE X_NUC_16.L_CORE 0.006216
K_341 X_NUC_3.L_CORE X_NUC_17.L_CORE 0.003624
K_342 X_NUC_3.L_CORE X_NUC_18.L_CORE 0.003587
K_343 X_NUC_3.L_CORE X_NUC_19.L_CORE 0.003571
K_344 X_NUC_3.L_CORE X_NUC_20.L_CORE 0.003619
K_345 X_NUC_3.L_CORE X_NUC_21.L_CORE 0.005402
K_346 X_NUC_3.L_CORE X_NUC_22.L_CORE 0.005529
K_347 X_NUC_3.L_CORE X_NUC_23.L_CORE 0.005417
K_348 X_NUC_3.L_CORE X_NUC_24.L_CORE 0.005417
K_349 X_NUC_3.L_CORE X_NUC_25.L_CORE 0.003597
K_350 X_NUC_3.L_CORE X_NUC_26.L_CORE 0.003542
K_351 X_NUC_3.L_CORE X_NUC_27.L_CORE 0.003560
K_352 X_NUC_3.L_CORE X_NUC_28.L_CORE 0.003545
K_353 X_NUC_3.L_CORE X_NUC_29.L_CORE 0.003256
K_354 X_NUC_3.L_CORE X_NUC_30.L_CORE 0.003260
K_355 X_NUC_3.L_CORE X_NUC_31.L_CORE 0.003221
K_356 X_NUC_3.L_CORE X_NUC_32.L_CORE 0.003267
K_357 X_NUC_3.L_CORE X_NUC_33.L_CORE 0.004214
K_358 X_NUC_3.L_CORE X_NUC_34.L_CORE 0.004234
K_359 X_NUC_3.L_CORE X_NUC_35.L_CORE 0.004221
K_360 X_NUC_3.L_CORE X_NUC_36.L_CORE 0.004157
K_361 X_NUC_3.L_CORE X_NUC_37.L_CORE 0.002752
K_362 X_NUC_3.L_CORE X_NUC_38.L_CORE 0.002723
K_363 X_NUC_3.L_CORE X_NUC_39.L_CORE 0.002719
K_364 X_NUC_3.L_CORE X_NUC_40.L_CORE 0.002734
K_365 X_NUC_3.L_CORE X_NUC_41.L_CORE 0.003278
K_366 X_NUC_3.L_CORE X_NUC_42.L_CORE 0.003314
K_367 X_NUC_3.L_CORE X_NUC_43.L_CORE 0.003263
K_368 X_NUC_3.L_CORE X_NUC_44.L_CORE 0.003287
K_369 X_NUC_3.L_CORE X_NUC_45.L_CORE 0.003053
K_370 X_NUC_3.L_CORE X_NUC_46.L_CORE 0.003029
K_371 X_NUC_3.L_CORE X_NUC_47.L_CORE 0.003036
K_372 X_NUC_3.L_CORE X_NUC_48.L_CORE 0.003009
K_373 X_NUC_3.L_CORE X_NUC_49.L_CORE 0.002486
K_374 X_NUC_3.L_CORE X_NUC_50.L_CORE 0.002477
K_375 X_NUC_3.L_CORE X_NUC_51.L_CORE 0.002459
K_376 X_NUC_3.L_CORE X_NUC_52.L_CORE 0.002482
K_377 X_NUC_3.L_CORE X_NUC_53.L_CORE 0.003157
K_378 X_NUC_3.L_CORE X_NUC_54.L_CORE 0.003187
K_379 X_NUC_3.L_CORE X_NUC_55.L_CORE 0.003155
K_380 X_NUC_3.L_CORE X_NUC_56.L_CORE 0.003139
K_381 X_NUC_3.L_CORE X_NUC_57.L_CORE 0.002419
K_382 X_NUC_3.L_CORE X_NUC_58.L_CORE 0.002396
K_383 X_NUC_3.L_CORE X_NUC_59.L_CORE 0.002396
K_384 X_NUC_3.L_CORE X_NUC_60.L_CORE 0.002396
K_385 X_NUC_3.L_CORE X_NUC_61.L_CORE 0.002475
K_386 X_NUC_3.L_CORE X_NUC_62.L_CORE 0.002484
K_387 X_NUC_3.L_CORE X_NUC_63.L_CORE 0.002456
K_388 X_NUC_3.L_CORE X_NUC_64.L_CORE 0.002476
K_389 X_NUC_3.L_CORE X_NUC_65.L_CORE 0.002694
K_390 X_NUC_3.L_CORE X_NUC_66.L_CORE 0.002692
K_391 X_NUC_3.L_CORE X_NUC_67.L_CORE 0.002686
K_392 X_NUC_3.L_CORE X_NUC_68.L_CORE 0.002663
K_393 X_NUC_3.L_CORE X_NUC_69.L_CORE 0.002144
K_394 X_NUC_3.L_CORE X_NUC_70.L_CORE 0.002131
K_395 X_NUC_3.L_CORE X_NUC_71.L_CORE 0.002122
K_396 X_NUC_3.L_CORE X_NUC_72.L_CORE 0.002133
K_397 X_NUC_3.L_CORE X_NUC_73.L_CORE 0.002500
K_398 X_NUC_3.L_CORE X_NUC_74.L_CORE 0.002518
K_399 X_NUC_3.L_CORE X_NUC_75.L_CORE 0.002490
K_400 X_NUC_3.L_CORE X_NUC_76.L_CORE 0.002494
K_401 X_NUC_3.L_CORE X_NUC_77.L_CORE 0.002238
K_402 X_NUC_3.L_CORE X_NUC_78.L_CORE 0.002224
K_403 X_NUC_3.L_CORE X_NUC_79.L_CORE 0.002222
K_404 X_NUC_3.L_CORE X_NUC_80.L_CORE 0.002215
K_405 X_NUC_3.L_CORE X_NUC_81.L_CORE 0.002074
K_406 X_NUC_3.L_CORE X_NUC_82.L_CORE 0.002073
K_407 X_NUC_3.L_CORE X_NUC_83.L_CORE 0.002056
K_408 X_NUC_3.L_CORE X_NUC_84.L_CORE 0.002070
K_409 X_NUC_3.L_CORE X_NUC_85.L_CORE 0.002356
K_410 X_NUC_3.L_CORE X_NUC_86.L_CORE 0.002364
K_411 X_NUC_3.L_CORE X_NUC_87.L_CORE 0.002349
K_412 X_NUC_3.L_CORE X_NUC_88.L_CORE 0.002338
K_413 X_NUC_3.L_CORE X_NUC_89.L_CORE 0.001969
K_414 X_NUC_3.L_CORE X_NUC_90.L_CORE 0.001958
K_415 X_NUC_3.L_CORE X_NUC_91.L_CORE 0.001952
K_416 X_NUC_3.L_CORE X_NUC_92.L_CORE 0.001955
K_417 X_NUC_3.L_CORE X_NUC_93.L_CORE 0.002087
K_418 X_NUC_3.L_CORE X_NUC_94.L_CORE 0.002095
K_419 X_NUC_3.L_CORE X_NUC_95.L_CORE 0.002075
K_420 X_NUC_3.L_CORE X_NUC_96.L_CORE 0.002083
K_421 X_NUC_3.L_CORE X_NUC_97.L_CORE 0.002085
K_422 X_NUC_3.L_CORE X_NUC_98.L_CORE 0.002080
K_423 X_NUC_3.L_CORE X_NUC_99.L_CORE 0.002074
K_424 X_NUC_3.L_CORE X_NUC_100.L_CORE 0.002065
K_425 X_NUC_3.L_CORE X_NUC_101.L_CORE 0.001861
K_426 X_NUC_3.L_CORE X_NUC_102.L_CORE 0.001856
K_427 X_NUC_3.L_CORE X_NUC_103.L_CORE 0.001844
K_428 X_NUC_3.L_CORE X_NUC_104.L_CORE 0.001853
K_429 X_NUC_3.L_CORE X_NUC_105.L_CORE 0.002048
K_430 X_NUC_3.L_CORE X_NUC_106.L_CORE 0.002055
K_431 X_NUC_3.L_CORE X_NUC_107.L_CORE 0.002039
K_432 X_NUC_3.L_CORE X_NUC_108.L_CORE 0.002037
K_433 X_NUC_3.L_CORE X_NUC_109.L_CORE 0.001862
K_434 X_NUC_3.L_CORE X_NUC_110.L_CORE 0.001854
K_435 X_NUC_3.L_CORE X_NUC_111.L_CORE 0.001848
K_436 X_NUC_3.L_CORE X_NUC_112.L_CORE 0.001847
K_437 X_NUC_3.L_CORE X_NUC_113.L_CORE 0.001838
K_438 X_NUC_3.L_CORE X_NUC_114.L_CORE 0.001839
K_439 X_NUC_3.L_CORE X_NUC_115.L_CORE 0.001824
K_440 X_NUC_3.L_CORE X_NUC_116.L_CORE 0.001831
K_441 X_NUC_3.L_CORE X_NUC_117.L_CORE 0.001906
K_442 X_NUC_3.L_CORE X_NUC_118.L_CORE 0.001906
K_443 X_NUC_3.L_CORE X_NUC_119.L_CORE 0.001896
K_444 X_NUC_3.L_CORE X_NUC_120.L_CORE 0.001892
K_445 X_NUC_3.L_CORE X_NUC_121.L_CORE 0.001749
K_446 X_NUC_3.L_CORE X_NUC_122.L_CORE 0.001744
K_447 X_NUC_3.L_CORE X_NUC_123.L_CORE 0.001735
K_448 X_NUC_3.L_CORE X_NUC_124.L_CORE 0.001738
K_449 X_NUC_3.L_CORE X_NUC_125.L_CORE 0.001803
K_450 X_NUC_3.L_CORE X_NUC_126.L_CORE 0.001805
K_451 X_NUC_3.L_CORE X_NUC_127.L_CORE 0.001792
K_452 X_NUC_3.L_CORE X_NUC_128.L_CORE 0.001794
K_453 X_NUC_3.L_CORE X_NUC_129.L_CORE 0.001754
K_454 X_NUC_3.L_CORE X_NUC_130.L_CORE 0.001752
K_455 X_NUC_3.L_CORE X_NUC_131.L_CORE 0.001743
K_456 X_NUC_3.L_CORE X_NUC_132.L_CORE 0.001743
K_457 X_NUC_3.L_CORE X_NUC_133.L_CORE 0.030552
K_458 X_NUC_3.L_CORE X_NUC_134.L_CORE 0.005188
K_459 X_NUC_3.L_CORE X_NUC_135.L_CORE 0.005644
K_460 X_NUC_3.L_CORE X_NUC_136.L_CORE 0.005897
K_461 X_NUC_3.L_CORE X_NUC_137.L_CORE 0.003404
K_462 X_NUC_3.L_CORE X_NUC_138.L_CORE 0.005105
K_463 X_NUC_3.L_CORE X_NUC_139.L_CORE 0.003367
K_464 X_NUC_3.L_CORE X_NUC_140.L_CORE 0.003077
K_465 X_NUC_3.L_CORE X_NUC_141.L_CORE 0.003968
K_466 X_NUC_3.L_CORE X_NUC_142.L_CORE 0.002590
K_467 X_NUC_3.L_CORE X_NUC_143.L_CORE 0.003110
K_468 X_NUC_3.L_CORE X_NUC_144.L_CORE 0.002872
K_469 X_NUC_3.L_CORE X_NUC_145.L_CORE 0.002349
K_470 X_NUC_3.L_CORE X_NUC_146.L_CORE 0.002992
K_471 X_NUC_3.L_CORE X_NUC_147.L_CORE 0.002278
K_472 X_NUC_3.L_CORE X_NUC_148.L_CORE 0.002345
K_473 X_NUC_3.L_CORE X_NUC_149.L_CORE 0.002544
K_474 X_NUC_3.L_CORE X_NUC_150.L_CORE 0.002025
K_475 X_NUC_3.L_CORE X_NUC_151.L_CORE 0.002372
K_476 X_NUC_3.L_CORE X_NUC_152.L_CORE 0.002112
K_477 X_NUC_3.L_CORE X_NUC_153.L_CORE 0.001964
K_478 X_NUC_3.L_CORE X_NUC_154.L_CORE 0.002231
K_479 X_NUC_3.L_CORE X_NUC_155.L_CORE 0.001860
K_480 X_NUC_3.L_CORE X_NUC_156.L_CORE 0.001979
K_481 X_NUC_3.L_CORE X_NUC_157.L_CORE 0.001971
K_482 X_NUC_3.L_CORE X_NUC_158.L_CORE 0.001760
K_483 X_NUC_3.L_CORE X_NUC_159.L_CORE 0.001941
K_484 X_NUC_3.L_CORE X_NUC_160.L_CORE 0.001760
K_485 X_NUC_3.L_CORE X_NUC_161.L_CORE 0.001741
K_486 X_NUC_3.L_CORE X_NUC_162.L_CORE 0.001805
K_487 X_NUC_3.L_CORE X_NUC_163.L_CORE 0.001655
K_488 X_NUC_3.L_CORE X_NUC_164.L_CORE 0.001708
K_489 X_NUC_3.L_CORE X_NUC_165.L_CORE 0.001661
K_490 X_NUC_4.L_CORE X_NUC_5.L_CORE 0.005561
K_491 X_NUC_4.L_CORE X_NUC_6.L_CORE 0.005424
K_492 X_NUC_4.L_CORE X_NUC_7.L_CORE 0.005459
K_493 X_NUC_4.L_CORE X_NUC_8.L_CORE 0.005505
K_494 X_NUC_4.L_CORE X_NUC_9.L_CORE 0.005860
K_495 X_NUC_4.L_CORE X_NUC_10.L_CORE 0.005927
K_496 X_NUC_4.L_CORE X_NUC_11.L_CORE 0.005797
K_497 X_NUC_4.L_CORE X_NUC_12.L_CORE 0.005945
K_498 X_NUC_4.L_CORE X_NUC_13.L_CORE 0.006548
K_499 X_NUC_4.L_CORE X_NUC_14.L_CORE 0.006451
K_500 X_NUC_4.L_CORE X_NUC_15.L_CORE 0.006534
K_501 X_NUC_4.L_CORE X_NUC_16.L_CORE 0.006372
K_502 X_NUC_4.L_CORE X_NUC_17.L_CORE 0.003576
K_503 X_NUC_4.L_CORE X_NUC_18.L_CORE 0.003540
K_504 X_NUC_4.L_CORE X_NUC_19.L_CORE 0.003525
K_505 X_NUC_4.L_CORE X_NUC_20.L_CORE 0.003571
K_506 X_NUC_4.L_CORE X_NUC_21.L_CORE 0.005400
K_507 X_NUC_4.L_CORE X_NUC_22.L_CORE 0.005527
K_508 X_NUC_4.L_CORE X_NUC_23.L_CORE 0.005413
K_509 X_NUC_4.L_CORE X_NUC_24.L_CORE 0.005417
K_510 X_NUC_4.L_CORE X_NUC_25.L_CORE 0.003611
K_511 X_NUC_4.L_CORE X_NUC_26.L_CORE 0.003556
K_512 X_NUC_4.L_CORE X_NUC_27.L_CORE 0.003574
K_513 X_NUC_4.L_CORE X_NUC_28.L_CORE 0.003560
K_514 X_NUC_4.L_CORE X_NUC_29.L_CORE 0.003210
K_515 X_NUC_4.L_CORE X_NUC_30.L_CORE 0.003213
K_516 X_NUC_4.L_CORE X_NUC_31.L_CORE 0.003176
K_517 X_NUC_4.L_CORE X_NUC_32.L_CORE 0.003221
K_518 X_NUC_4.L_CORE X_NUC_33.L_CORE 0.004280
K_519 X_NUC_4.L_CORE X_NUC_34.L_CORE 0.004302
K_520 X_NUC_4.L_CORE X_NUC_35.L_CORE 0.004288
K_521 X_NUC_4.L_CORE X_NUC_36.L_CORE 0.004221
K_522 X_NUC_4.L_CORE X_NUC_37.L_CORE 0.002737
K_523 X_NUC_4.L_CORE X_NUC_38.L_CORE 0.002709
K_524 X_NUC_4.L_CORE X_NUC_39.L_CORE 0.002705
K_525 X_NUC_4.L_CORE X_NUC_40.L_CORE 0.002719
K_526 X_NUC_4.L_CORE X_NUC_41.L_CORE 0.003254
K_527 X_NUC_4.L_CORE X_NUC_42.L_CORE 0.003289
K_528 X_NUC_4.L_CORE X_NUC_43.L_CORE 0.003239
K_529 X_NUC_4.L_CORE X_NUC_44.L_CORE 0.003263
K_530 X_NUC_4.L_CORE X_NUC_45.L_CORE 0.003080
K_531 X_NUC_4.L_CORE X_NUC_46.L_CORE 0.003055
K_532 X_NUC_4.L_CORE X_NUC_47.L_CORE 0.003062
K_533 X_NUC_4.L_CORE X_NUC_48.L_CORE 0.003036