* Applied Vacuum Engineering (AVE) - SPICE Netlist
* Element: Iron-56 (Z=26, A=56)
* Auto-generated topological mutual impedance array
* Nodes: 56



* -----------------------------------------------------------------
* NUCLEON (Baseline 6^3_2 Topological Defect)
* -----------------------------------------------------------------
.SUBCKT NUCLEON IN OUT
L_CORE IN OUT 1uH
C_CORE IN OUT 1pF
.ENDS NUCLEON



* -----------------------------------------------------------------
* MACROSCOPIC TOPOLOGY (Nucleon Array)
* -----------------------------------------------------------------
V_STIM NODE_1 0 AC 1 PULSE(0 100k 10n 1n 1n 50n 100n)

X_NUC_1 NODE_1 0 NUCLEON
X_NUC_2 NODE_2 0 NUCLEON
X_NUC_3 NODE_3 0 NUCLEON
X_NUC_4 NODE_4 0 NUCLEON
X_NUC_5 NODE_5 0 NUCLEON
X_NUC_6 NODE_6 0 NUCLEON
X_NUC_7 NODE_7 0 NUCLEON
X_NUC_8 NODE_8 0 NUCLEON
X_NUC_9 NODE_9 0 NUCLEON
X_NUC_10 NODE_10 0 NUCLEON
X_NUC_11 NODE_11 0 NUCLEON
X_NUC_12 NODE_12 0 NUCLEON
X_NUC_13 NODE_13 0 NUCLEON
X_NUC_14 NODE_14 0 NUCLEON
X_NUC_15 NODE_15 0 NUCLEON
X_NUC_16 NODE_16 0 NUCLEON
X_NUC_17 NODE_17 0 NUCLEON
X_NUC_18 NODE_18 0 NUCLEON
X_NUC_19 NODE_19 0 NUCLEON
X_NUC_20 NODE_20 0 NUCLEON
X_NUC_21 NODE_21 0 NUCLEON
X_NUC_22 NODE_22 0 NUCLEON
X_NUC_23 NODE_23 0 NUCLEON
X_NUC_24 NODE_24 0 NUCLEON
X_NUC_25 NODE_25 0 NUCLEON
X_NUC_26 NODE_26 0 NUCLEON
X_NUC_27 NODE_27 0 NUCLEON
X_NUC_28 NODE_28 0 NUCLEON
X_NUC_29 NODE_29 0 NUCLEON
X_NUC_30 NODE_30 0 NUCLEON
X_NUC_31 NODE_31 0 NUCLEON
X_NUC_32 NODE_32 0 NUCLEON
X_NUC_33 NODE_33 0 NUCLEON
X_NUC_34 NODE_34 0 NUCLEON
X_NUC_35 NODE_35 0 NUCLEON
X_NUC_36 NODE_36 0 NUCLEON
X_NUC_37 NODE_37 0 NUCLEON
X_NUC_38 NODE_38 0 NUCLEON
X_NUC_39 NODE_39 0 NUCLEON
X_NUC_40 NODE_40 0 NUCLEON
X_NUC_41 NODE_41 0 NUCLEON
X_NUC_42 NODE_42 0 NUCLEON
X_NUC_43 NODE_43 0 NUCLEON
X_NUC_44 NODE_44 0 NUCLEON
X_NUC_45 NODE_45 0 NUCLEON
X_NUC_46 NODE_46 0 NUCLEON
X_NUC_47 NODE_47 0 NUCLEON
X_NUC_48 NODE_48 0 NUCLEON
X_NUC_49 NODE_49 0 NUCLEON
X_NUC_50 NODE_50 0 NUCLEON
X_NUC_51 NODE_51 0 NUCLEON
X_NUC_52 NODE_52 0 NUCLEON
X_NUC_53 NODE_53 0 NUCLEON
X_NUC_54 NODE_54 0 NUCLEON
X_NUC_55 NODE_55 0 NUCLEON
X_NUC_56 NODE_56 0 NUCLEON


* -----------------------------------------------------------------
* SPATIAL MUTUAL INDUCTANCE (K-FACTORS)
* -----------------------------------------------------------------
K_1 X_NUC_1.L_CORE X_NUC_2.L_CORE 0.207973
K_2 X_NUC_1.L_CORE X_NUC_3.L_CORE 0.207973
K_3 X_NUC_1.L_CORE X_NUC_4.L_CORE 0.207973
K_4 X_NUC_1.L_CORE X_NUC_5.L_CORE 0.008885
K_5 X_NUC_1.L_CORE X_NUC_6.L_CORE 0.008542
K_6 X_NUC_1.L_CORE X_NUC_7.L_CORE 0.008611
K_7 X_NUC_1.L_CORE X_NUC_8.L_CORE 0.008720
K_8 X_NUC_1.L_CORE X_NUC_9.L_CORE 0.009578
K_9 X_NUC_1.L_CORE X_NUC_10.L_CORE 0.009734
K_10 X_NUC_1.L_CORE X_NUC_11.L_CORE 0.009360
K_11 X_NUC_1.L_CORE X_NUC_12.L_CORE 0.009737
K_12 X_NUC_1.L_CORE X_NUC_13.L_CORE 0.010076
K_13 X_NUC_1.L_CORE X_NUC_14.L_CORE 0.009851
K_14 X_NUC_1.L_CORE X_NUC_15.L_CORE 0.009943
K_15 X_NUC_1.L_CORE X_NUC_16.L_CORE 0.009626
K_16 X_NUC_1.L_CORE X_NUC_17.L_CORE 0.005879
K_17 X_NUC_1.L_CORE X_NUC_18.L_CORE 0.005786
K_18 X_NUC_1.L_CORE X_NUC_19.L_CORE 0.005727
K_19 X_NUC_1.L_CORE X_NUC_20.L_CORE 0.005841
K_20 X_NUC_1.L_CORE X_NUC_21.L_CORE 0.008320
K_21 X_NUC_1.L_CORE X_NUC_22.L_CORE 0.008545
K_22 X_NUC_1.L_CORE X_NUC_23.L_CORE 0.008242
K_23 X_NUC_1.L_CORE X_NUC_24.L_CORE 0.008260
K_24 X_NUC_1.L_CORE X_NUC_25.L_CORE 0.005815
K_25 X_NUC_1.L_CORE X_NUC_26.L_CORE 0.005692
K_26 X_NUC_1.L_CORE X_NUC_27.L_CORE 0.005696
K_27 X_NUC_1.L_CORE X_NUC_28.L_CORE 0.005672
K_28 X_NUC_1.L_CORE X_NUC_29.L_CORE 0.005314
K_29 X_NUC_1.L_CORE X_NUC_30.L_CORE 0.005315
K_30 X_NUC_1.L_CORE X_NUC_31.L_CORE 0.005203
K_31 X_NUC_1.L_CORE X_NUC_32.L_CORE 0.005301
K_32 X_NUC_1.L_CORE X_NUC_33.L_CORE 0.006290
K_33 X_NUC_1.L_CORE X_NUC_34.L_CORE 0.006305
K_34 X_NUC_1.L_CORE X_NUC_35.L_CORE 0.006217
K_35 X_NUC_1.L_CORE X_NUC_36.L_CORE 0.006140
K_36 X_NUC_1.L_CORE X_NUC_37.L_CORE 0.004622
K_37 X_NUC_1.L_CORE X_NUC_38.L_CORE 0.004562
K_38 X_NUC_1.L_CORE X_NUC_39.L_CORE 0.004523
K_39 X_NUC_1.L_CORE X_NUC_40.L_CORE 0.004555
K_40 X_NUC_1.L_CORE X_NUC_41.L_CORE 0.005083
K_41 X_NUC_1.L_CORE X_NUC_42.L_CORE 0.005116
K_42 X_NUC_1.L_CORE X_NUC_43.L_CORE 0.005001
K_43 X_NUC_1.L_CORE X_NUC_44.L_CORE 0.005040
K_44 X_NUC_1.L_CORE X_NUC_45.L_CORE 0.004768
K_45 X_NUC_1.L_CORE X_NUC_46.L_CORE 0.004732
K_46 X_NUC_1.L_CORE X_NUC_47.L_CORE 0.004688
K_47 X_NUC_1.L_CORE X_NUC_48.L_CORE 0.004671
K_48 X_NUC_1.L_CORE X_NUC_49.L_CORE 0.004334
K_49 X_NUC_1.L_CORE X_NUC_50.L_CORE 0.004317
K_50 X_NUC_1.L_CORE X_NUC_51.L_CORE 0.004253
K_51 X_NUC_1.L_CORE X_NUC_52.L_CORE 0.004281
K_52 X_NUC_1.L_CORE X_NUC_53.L_CORE 0.019733
K_53 X_NUC_1.L_CORE X_NUC_54.L_CORE 0.005165
K_54 X_NUC_1.L_CORE X_NUC_55.L_CORE 0.004892
K_55 X_NUC_1.L_CORE X_NUC_56.L_CORE 0.004298
K_56 X_NUC_2.L_CORE X_NUC_3.L_CORE 0.207973
K_57 X_NUC_2.L_CORE X_NUC_4.L_CORE 0.207973
K_58 X_NUC_2.L_CORE X_NUC_5.L_CORE 0.009255
K_59 X_NUC_2.L_CORE X_NUC_6.L_CORE 0.008885
K_60 X_NUC_2.L_CORE X_NUC_7.L_CORE 0.008955
K_61 X_NUC_2.L_CORE X_NUC_8.L_CORE 0.009077
K_62 X_NUC_2.L_CORE X_NUC_9.L_CORE 0.009410
K_63 X_NUC_2.L_CORE X_NUC_10.L_CORE 0.009578
K_64 X_NUC_2.L_CORE X_NUC_11.L_CORE 0.009212
K_65 X_NUC_2.L_CORE X_NUC_12.L_CORE 0.009571
K_66 X_NUC_2.L_CORE X_NUC_13.L_CORE 0.010292
K_67 X_NUC_2.L_CORE X_NUC_14.L_CORE 0.010076
K_68 X_NUC_2.L_CORE X_NUC_15.L_CORE 0.010163
K_69 X_NUC_2.L_CORE X_NUC_16.L_CORE 0.009825
K_70 X_NUC_2.L_CORE X_NUC_17.L_CORE 0.005971
K_71 X_NUC_2.L_CORE X_NUC_18.L_CORE 0.005879
K_72 X_NUC_2.L_CORE X_NUC_19.L_CORE 0.005815
K_73 X_NUC_2.L_CORE X_NUC_20.L_CORE 0.005934
K_74 X_NUC_2.L_CORE X_NUC_21.L_CORE 0.008100
K_75 X_NUC_2.L_CORE X_NUC_22.L_CORE 0.008320
K_76 X_NUC_2.L_CORE X_NUC_23.L_CORE 0.008034
K_77 X_NUC_2.L_CORE X_NUC_24.L_CORE 0.008051
K_78 X_NUC_2.L_CORE X_NUC_25.L_CORE 0.005942
K_79 X_NUC_2.L_CORE X_NUC_26.L_CORE 0.005815
K_80 X_NUC_2.L_CORE X_NUC_27.L_CORE 0.005817
K_81 X_NUC_2.L_CORE X_NUC_28.L_CORE 0.005792
K_82 X_NUC_2.L_CORE X_NUC_29.L_CORE 0.005310
K_83 X_NUC_2.L_CORE X_NUC_30.L_CORE 0.005314
K_84 X_NUC_2.L_CORE X_NUC_31.L_CORE 0.005201
K_85 X_NUC_2.L_CORE X_NUC_32.L_CORE 0.005298
K_86 X_NUC_2.L_CORE X_NUC_33.L_CORE 0.006269
K_87 X_NUC_2.L_CORE X_NUC_34.L_CORE 0.006290
K_88 X_NUC_2.L_CORE X_NUC_35.L_CORE 0.006200
K_89 X_NUC_2.L_CORE X_NUC_36.L_CORE 0.006123
K_90 X_NUC_2.L_CORE X_NUC_37.L_CORE 0.004682
K_91 X_NUC_2.L_CORE X_NUC_38.L_CORE 0.004622
K_92 X_NUC_2.L_CORE X_NUC_39.L_CORE 0.004580
K_93 X_NUC_2.L_CORE X_NUC_40.L_CORE 0.004614
K_94 X_NUC_2.L_CORE X_NUC_41.L_CORE 0.005048
K_95 X_NUC_2.L_CORE X_NUC_42.L_CORE 0.005083
K_96 X_NUC_2.L_CORE X_NUC_43.L_CORE 0.004969
K_97 X_NUC_2.L_CORE X_NUC_44.L_CORE 0.005006
K_98 X_NUC_2.L_CORE X_NUC_45.L_CORE 0.004801
K_99 X_NUC_2.L_CORE X_NUC_46.L_CORE 0.004768
K_100 X_NUC_2.L_CORE X_NUC_47.L_CORE 0.004721
K_101 X_NUC_2.L_CORE X_NUC_48.L_CORE 0.004704
K_102 X_NUC_2.L_CORE X_NUC_49.L_CORE 0.004350
K_103 X_NUC_2.L_CORE X_NUC_50.L_CORE 0.004334
K_104 X_NUC_2.L_CORE X_NUC_51.L_CORE 0.004269
K_105 X_NUC_2.L_CORE X_NUC_52.L_CORE 0.004298
K_106 X_NUC_2.L_CORE X_NUC_53.L_CORE 0.018493
K_107 X_NUC_2.L_CORE X_NUC_54.L_CORE 0.005284
K_108 X_NUC_2.L_CORE X_NUC_55.L_CORE 0.004850
K_109 X_NUC_2.L_CORE X_NUC_56.L_CORE 0.004315
K_110 X_NUC_3.L_CORE X_NUC_4.L_CORE 0.207973
K_111 X_NUC_3.L_CORE X_NUC_5.L_CORE 0.009169
K_112 X_NUC_3.L_CORE X_NUC_6.L_CORE 0.008802
K_113 X_NUC_3.L_CORE X_NUC_7.L_CORE 0.008885
K_114 X_NUC_3.L_CORE X_NUC_8.L_CORE 0.008996
K_115 X_NUC_3.L_CORE X_NUC_9.L_CORE 0.009791
K_116 X_NUC_3.L_CORE X_NUC_10.L_CORE 0.009969
K_117 X_NUC_3.L_CORE X_NUC_11.L_CORE 0.009578
K_118 X_NUC_3.L_CORE X_NUC_12.L_CORE 0.009972
K_119 X_NUC_3.L_CORE X_NUC_13.L_CORE 0.010190
K_120 X_NUC_3.L_CORE X_NUC_14.L_CORE 0.009968
K_121 X_NUC_3.L_CORE X_NUC_15.L_CORE 0.010076
K_122 X_NUC_3.L_CORE X_NUC_16.L_CORE 0.009736
K_123 X_NUC_3.L_CORE X_NUC_17.L_CORE 0.006038
K_124 X_NUC_3.L_CORE X_NUC_18.L_CORE 0.005940
K_125 X_NUC_3.L_CORE X_NUC_19.L_CORE 0.005879
K_126 X_NUC_3.L_CORE X_NUC_20.L_CORE 0.005999
K_127 X_NUC_3.L_CORE X_NUC_21.L_CORE 0.008387
K_128 X_NUC_3.L_CORE X_NUC_22.L_CORE 0.008624
K_129 X_NUC_3.L_CORE X_NUC_23.L_CORE 0.008320
K_130 X_NUC_3.L_CORE X_NUC_24.L_CORE 0.008332
K_131 X_NUC_3.L_CORE X_NUC_25.L_CORE 0.005939
K_132 X_NUC_3.L_CORE X_NUC_26.L_CORE 0.005810
K_133 X_NUC_3.L_CORE X_NUC_27.L_CORE 0.005815
K_134 X_NUC_3.L_CORE X_NUC_28.L_CORE 0.005788
K_135 X_NUC_3.L_CORE X_NUC_29.L_CORE 0.005429
K_136 X_NUC_3.L_CORE X_NUC_30.L_CORE 0.005432
K_137 X_NUC_3.L_CORE X_NUC_31.L_CORE 0.005314
K_138 X_NUC_3.L_CORE X_NUC_32.L_CORE 0.005417
K_139 X_NUC_3.L_CORE X_NUC_33.L_CORE 0.006359
K_140 X_NUC_3.L_CORE X_NUC_34.L_CORE 0.006377
K_141 X_NUC_3.L_CORE X_NUC_35.L_CORE 0.006290
K_142 X_NUC_3.L_CORE X_NUC_36.L_CORE 0.006206
K_143 X_NUC_3.L_CORE X_NUC_37.L_CORE 0.004725
K_144 X_NUC_3.L_CORE X_NUC_38.L_CORE 0.004662
K_145 X_NUC_3.L_CORE X_NUC_39.L_CORE 0.004622
K_146 X_NUC_3.L_CORE X_NUC_40.L_CORE 0.004655
K_147 X_NUC_3.L_CORE X_NUC_41.L_CORE 0.005166
K_148 X_NUC_3.L_CORE X_NUC_42.L_CORE 0.005202
K_149 X_NUC_3.L_CORE X_NUC_43.L_CORE 0.005083
K_150 X_NUC_3.L_CORE X_NUC_44.L_CORE 0.005122
K_151 X_NUC_3.L_CORE X_NUC_45.L_CORE 0.004849
K_152 X_NUC_3.L_CORE X_NUC_46.L_CORE 0.004813
K_153 X_NUC_3.L_CORE X_NUC_47.L_CORE 0.004768
K_154 X_NUC_3.L_CORE X_NUC_48.L_CORE 0.004749
K_155 X_NUC_3.L_CORE X_NUC_49.L_CORE 0.004418
K_156 X_NUC_3.L_CORE X_NUC_50.L_CORE 0.004400
K_157 X_NUC_3.L_CORE X_NUC_51.L_CORE 0.004334
K_158 X_NUC_3.L_CORE X_NUC_52.L_CORE 0.004363
K_159 X_NUC_3.L_CORE X_NUC_53.L_CORE 0.018431
K_160 X_NUC_3.L_CORE X_NUC_54.L_CORE 0.005271
K_161 X_NUC_3.L_CORE X_NUC_55.L_CORE 0.004964
K_162 X_NUC_3.L_CORE X_NUC_56.L_CORE 0.004353
K_163 X_NUC_4.L_CORE X_NUC_5.L_CORE 0.009043
K_164 X_NUC_4.L_CORE X_NUC_6.L_CORE 0.008690
K_165 X_NUC_4.L_CORE X_NUC_7.L_CORE 0.008762
K_166 X_NUC_4.L_CORE X_NUC_8.L_CORE 0.008885
K_167 X_NUC_4.L_CORE X_NUC_9.L_CORE 0.009407
K_168 X_NUC_4.L_CORE X_NUC_10.L_CORE 0.009565
K_169 X_NUC_4.L_CORE X_NUC_11.L_CORE 0.009209
K_170 X_NUC_4.L_CORE X_NUC_12.L_CORE 0.009578
K_171 X_NUC_4.L_CORE X_NUC_13.L_CORE 0.010568
K_172 X_NUC_4.L_CORE X_NUC_14.L_CORE 0.010322
K_173 X_NUC_4.L_CORE X_NUC_15.L_CORE 0.010428
K_174 X_NUC_4.L_CORE X_NUC_16.L_CORE 0.010076
K_175 X_NUC_4.L_CORE X_NUC_17.L_CORE 0.005913
K_176 X_NUC_4.L_CORE X_NUC_18.L_CORE 0.005821
K_177 X_NUC_4.L_CORE X_NUC_19.L_CORE 0.005761
K_178 X_NUC_4.L_CORE X_NUC_20.L_CORE 0.005879
K_179 X_NUC_4.L_CORE X_NUC_21.L_CORE 0.008368
K_180 X_NUC_4.L_CORE X_NUC_22.L_CORE 0.008604
K_181 X_NUC_4.L_CORE X_NUC_23.L_CORE 0.008295
K_182 X_NUC_4.L_CORE X_NUC_24.L_CORE 0.008320
K_183 X_NUC_4.L_CORE X_NUC_25.L_CORE 0.005965
K_184 X_NUC_4.L_CORE X_NUC_26.L_CORE 0.005835
K_185 X_NUC_4.L_CORE X_NUC_27.L_CORE 0.005838
K_186 X_NUC_4.L_CORE X_NUC_28.L_CORE 0.005815
K_187 X_NUC_4.L_CORE X_NUC_29.L_CORE 0.005324
K_188 X_NUC_4.L_CORE X_NUC_30.L_CORE 0.005326
K_189 X_NUC_4.L_CORE X_NUC_31.L_CORE 0.005214
K_190 X_NUC_4.L_CORE X_NUC_32.L_CORE 0.005314
K_191 X_NUC_4.L_CORE X_NUC_33.L_CORE 0.006445
K_192 X_NUC_4.L_CORE X_NUC_34.L_CORE 0.006464
K_193 X_NUC_4.L_CORE X_NUC_35.L_CORE 0.006370
K_194 X_NUC_4.L_CORE X_NUC_36.L_CORE 0.006290
K_195 X_NUC_4.L_CORE X_NUC_37.L_CORE 0.004689
K_196 X_NUC_4.L_CORE X_NUC_38.L_CORE 0.004628
K_197 X_NUC_4.L_CORE X_NUC_39.L_CORE 0.004587
K_198 X_NUC_4.L_CORE X_NUC_40.L_CORE 0.004622
K_199 X_NUC_4.L_CORE X_NUC_41.L_CORE 0.005125
K_200 X_NUC_4.L_CORE X_NUC_42.L_CORE 0.005160
K_201 X_NUC_4.L_CORE X_NUC_43.L_CORE 0.005043
K_202 X_NUC_4.L_CORE X_NUC_44.L_CORE 0.005083
K_203 X_NUC_4.L_CORE X_NUC_45.L_CORE 0.004868
K_204 X_NUC_4.L_CORE X_NUC_46.L_CORE 0.004832
K_205 X_NUC_4.L_CORE X_NUC_47.L_CORE 0.004784
K_206 X_NUC_4.L_CORE X_NUC_48.L_CORE 0.004768
K_207 X_NUC_4.L_CORE X_NUC_49.L_CORE 0.004387
K_208 X_NUC_4.L_CORE X_NUC_50.L_CORE 0.004370
K_209 X_NUC_4.L_CORE X_NUC_51.L_CORE 0.004304
K_210 X_NUC_4.L_CORE X_NUC_52.L_CORE 0.004334
K_211 X_NUC_4.L_CORE X_NUC_53.L_CORE 0.019658
K_212 X_NUC_4.L_CORE X_NUC_54.L_CORE 0.005245
K_213 X_NUC_4.L_CORE X_NUC_55.L_CORE 0.004893
K_214 X_NUC_4.L_CORE X_NUC_56.L_CORE 0.004379
K_215 X_NUC_5.L_CORE X_NUC_6.L_CORE 0.207973
K_216 X_NUC_5.L_CORE X_NUC_7.L_CORE 0.207973
K_217 X_NUC_5.L_CORE X_NUC_8.L_CORE 0.207973
K_218 X_NUC_5.L_CORE X_NUC_9.L_CORE 0.006436
K_219 X_NUC_5.L_CORE X_NUC_10.L_CORE 0.006626
K_220 X_NUC_5.L_CORE X_NUC_11.L_CORE 0.006474
K_221 X_NUC_5.L_CORE X_NUC_12.L_CORE 0.006547
K_222 X_NUC_5.L_CORE X_NUC_13.L_CORE 0.007904
K_223 X_NUC_5.L_CORE X_NUC_14.L_CORE 0.008046
K_224 X_NUC_5.L_CORE X_NUC_15.L_CORE 0.008038
K_225 X_NUC_5.L_CORE X_NUC_16.L_CORE 0.007788
K_226 X_NUC_5.L_CORE X_NUC_17.L_CORE 0.009724
K_227 X_NUC_5.L_CORE X_NUC_18.L_CORE 0.009761
K_228 X_NUC_5.L_CORE X_NUC_19.L_CORE 0.009395
K_229 X_NUC_5.L_CORE X_NUC_20.L_CORE 0.009763
K_230 X_NUC_5.L_CORE X_NUC_21.L_CORE 0.004974
K_231 X_NUC_5.L_CORE X_NUC_22.L_CORE 0.005086
K_232 X_NUC_5.L_CORE X_NUC_23.L_CORE 0.005006
K_233 X_NUC_5.L_CORE X_NUC_24.L_CORE 0.004990
K_234 X_NUC_5.L_CORE X_NUC_25.L_CORE 0.008984
K_235 X_NUC_5.L_CORE X_NUC_26.L_CORE 0.008885
K_236 X_NUC_5.L_CORE X_NUC_27.L_CORE 0.008821
K_237 X_NUC_5.L_CORE X_NUC_28.L_CORE 0.008626
K_238 X_NUC_5.L_CORE X_NUC_29.L_CORE 0.005386
K_239 X_NUC_5.L_CORE X_NUC_30.L_CORE 0.005468
K_240 X_NUC_5.L_CORE X_NUC_31.L_CORE 0.005329
K_241 X_NUC_5.L_CORE X_NUC_32.L_CORE 0.005408
K_242 X_NUC_5.L_CORE X_NUC_33.L_CORE 0.004952
K_243 X_NUC_5.L_CORE X_NUC_34.L_CORE 0.005022
K_244 X_NUC_5.L_CORE X_NUC_35.L_CORE 0.004964
K_245 X_NUC_5.L_CORE X_NUC_36.L_CORE 0.004905
K_246 X_NUC_5.L_CORE X_NUC_37.L_CORE 0.006725
K_247 X_NUC_5.L_CORE X_NUC_38.L_CORE 0.006691
K_248 X_NUC_5.L_CORE X_NUC_39.L_CORE 0.006540
K_249 X_NUC_5.L_CORE X_NUC_40.L_CORE 0.006589
K_250 X_NUC_5.L_CORE X_NUC_41.L_CORE 0.004380
K_251 X_NUC_5.L_CORE X_NUC_42.L_CORE 0.004445
K_252 X_NUC_5.L_CORE X_NUC_43.L_CORE 0.004360
K_253 X_NUC_5.L_CORE X_NUC_44.L_CORE 0.004371
K_254 X_NUC_5.L_CORE X_NUC_45.L_CORE 0.005120
K_255 X_NUC_5.L_CORE X_NUC_46.L_CORE 0.005145
K_256 X_NUC_5.L_CORE X_NUC_47.L_CORE 0.005073
K_257 X_NUC_5.L_CORE X_NUC_48.L_CORE 0.005031
K_258 X_NUC_5.L_CORE X_NUC_49.L_CORE 0.004768
K_259 X_NUC_5.L_CORE X_NUC_50.L_CORE 0.004799
K_260 X_NUC_5.L_CORE X_NUC_51.L_CORE 0.004701
K_261 X_NUC_5.L_CORE X_NUC_52.L_CORE 0.004721
K_262 X_NUC_5.L_CORE X_NUC_53.L_CORE 0.006305
K_263 X_NUC_5.L_CORE X_NUC_54.L_CORE 0.011271
K_264 X_NUC_5.L_CORE X_NUC_55.L_CORE 0.004207
K_265 X_NUC_5.L_CORE X_NUC_56.L_CORE 0.004317
K_266 X_NUC_6.L_CORE X_NUC_7.L_CORE 0.207973
K_267 X_NUC_6.L_CORE X_NUC_8.L_CORE 0.207973
K_268 X_NUC_6.L_CORE X_NUC_9.L_CORE 0.006256
K_269 X_NUC_6.L_CORE X_NUC_10.L_CORE 0.006436
K_270 X_NUC_6.L_CORE X_NUC_11.L_CORE 0.006294
K_271 X_NUC_6.L_CORE X_NUC_12.L_CORE 0.006361
K_272 X_NUC_6.L_CORE X_NUC_13.L_CORE 0.007759
K_273 X_NUC_6.L_CORE X_NUC_14.L_CORE 0.007904
K_274 X_NUC_6.L_CORE X_NUC_15.L_CORE 0.007891
K_275 X_NUC_6.L_CORE X_NUC_16.L_CORE 0.007654
K_276 X_NUC_6.L_CORE X_NUC_17.L_CORE 0.009666
K_277 X_NUC_6.L_CORE X_NUC_18.L_CORE 0.009724
K_278 X_NUC_6.L_CORE X_NUC_19.L_CORE 0.009352
K_279 X_NUC_6.L_CORE X_NUC_20.L_CORE 0.009715
K_280 X_NUC_6.L_CORE X_NUC_21.L_CORE 0.004866
K_281 X_NUC_6.L_CORE X_NUC_22.L_CORE 0.004974
K_282 X_NUC_6.L_CORE X_NUC_23.L_CORE 0.004898
K_283 X_NUC_6.L_CORE X_NUC_24.L_CORE 0.004882
K_284 X_NUC_6.L_CORE X_NUC_25.L_CORE 0.009069
K_285 X_NUC_6.L_CORE X_NUC_26.L_CORE 0.008984
K_286 X_NUC_6.L_CORE X_NUC_27.L_CORE 0.008909
K_287 X_NUC_6.L_CORE X_NUC_28.L_CORE 0.008708
K_288 X_NUC_6.L_CORE X_NUC_29.L_CORE 0.005305
K_289 X_NUC_6.L_CORE X_NUC_30.L_CORE 0.005386
K_290 X_NUC_6.L_CORE X_NUC_31.L_CORE 0.005252
K_291 X_NUC_6.L_CORE X_NUC_32.L_CORE 0.005327
K_292 X_NUC_6.L_CORE X_NUC_33.L_CORE 0.004882
K_293 X_NUC_6.L_CORE X_NUC_34.L_CORE 0.004952
K_294 X_NUC_6.L_CORE X_NUC_35.L_CORE 0.004895
K_295 X_NUC_6.L_CORE X_NUC_36.L_CORE 0.004838
K_296 X_NUC_6.L_CORE X_NUC_37.L_CORE 0.006752
K_297 X_NUC_6.L_CORE X_NUC_38.L_CORE 0.006725
K_298 X_NUC_6.L_CORE X_NUC_39.L_CORE 0.006568
K_299 X_NUC_6.L_CORE X_NUC_40.L_CORE 0.006618
K_300 X_NUC_6.L_CORE X_NUC_41.L_CORE 0.004316
K_301 X_NUC_6.L_CORE X_NUC_42.L_CORE 0.004380
K_302 X_NUC_6.L_CORE X_NUC_43.L_CORE 0.004298
K_303 X_NUC_6.L_CORE X_NUC_44.L_CORE 0.004308
K_304 X_NUC_6.L_CORE X_NUC_45.L_CORE 0.005094
K_305 X_NUC_6.L_CORE X_NUC_46.L_CORE 0.005120
K_306 X_NUC_6.L_CORE X_NUC_47.L_CORE 0.005048
K_307 X_NUC_6.L_CORE X_NUC_48.L_CORE 0.005006
K_308 X_NUC_6.L_CORE X_NUC_49.L_CORE 0.004734
K_309 X_NUC_6.L_CORE X_NUC_50.L_CORE 0.004768
K_310 X_NUC_6.L_CORE X_NUC_51.L_CORE 0.004670
K_311 X_NUC_6.L_CORE X_NUC_52.L_CORE 0.004690
K_312 X_NUC_6.L_CORE X_NUC_53.L_CORE 0.006140
K_313 X_NUC_6.L_CORE X_NUC_54.L_CORE 0.011768
K_314 X_NUC_6.L_CORE X_NUC_55.L_CORE 0.004143
K_315 X_NUC_6.L_CORE X_NUC_56.L_CORE 0.004294
K_316 X_NUC_7.L_CORE X_NUC_8.L_CORE 0.207973
K_317 X_NUC_7.L_CORE X_NUC_9.L_CORE 0.006393
K_318 X_NUC_7.L_CORE X_NUC_10.L_CORE 0.006582
K_319 X_NUC_7.L_CORE X_NUC_11.L_CORE 0.006436
K_320 X_NUC_7.L_CORE X_NUC_12.L_CORE 0.006505
K_321 X_NUC_7.L_CORE X_NUC_13.L_CORE 0.007765
K_322 X_NUC_7.L_CORE X_NUC_14.L_CORE 0.007905
K_323 X_NUC_7.L_CORE X_NUC_15.L_CORE 0.007904
K_324 X_NUC_7.L_CORE X_NUC_16.L_CORE 0.007660
K_325 X_NUC_7.L_CORE X_NUC_17.L_CORE 0.010067
K_326 X_NUC_7.L_CORE X_NUC_18.L_CORE 0.010120
K_327 X_NUC_7.L_CORE X_NUC_19.L_CORE 0.009724
K_328 X_NUC_7.L_CORE X_NUC_20.L_CORE 0.010122
K_329 X_NUC_7.L_CORE X_NUC_21.L_CORE 0.004940
K_330 X_NUC_7.L_CORE X_NUC_22.L_CORE 0.005051
K_331 X_NUC_7.L_CORE X_NUC_23.L_CORE 0.004974
K_332 X_NUC_7.L_CORE X_NUC_24.L_CORE 0.004956
K_333 X_NUC_7.L_CORE X_NUC_25.L_CORE 0.009139
K_334 X_NUC_7.L_CORE X_NUC_26.L_CORE 0.009043
K_335 X_NUC_7.L_CORE X_NUC_27.L_CORE 0.008984
K_336 X_NUC_7.L_CORE X_NUC_28.L_CORE 0.008770
K_337 X_NUC_7.L_CORE X_NUC_29.L_CORE 0.005441
K_338 X_NUC_7.L_CORE X_NUC_30.L_CORE 0.005527
K_339 X_NUC_7.L_CORE X_NUC_31.L_CORE 0.005386
K_340 X_NUC_7.L_CORE X_NUC_32.L_CORE 0.005466
K_341 X_NUC_7.L_CORE X_NUC_33.L_CORE 0.004937
K_342 X_NUC_7.L_CORE X_NUC_34.L_CORE 0.005008
K_343 X_NUC_7.L_CORE X_NUC_35.L_CORE 0.004952
K_344 X_NUC_7.L_CORE X_NUC_36.L_CORE 0.004891
K_345 X_NUC_7.L_CORE X_NUC_37.L_CORE 0.006918
K_346 X_NUC_7.L_CORE X_NUC_38.L_CORE 0.006885
K_347 X_NUC_7.L_CORE X_NUC_39.L_CORE 0.006725
K_348 X_NUC_7.L_CORE X_NUC_40.L_CORE 0.006775
K_349 X_NUC_7.L_CORE X_NUC_41.L_CORE 0.004398
K_350 X_NUC_7.L_CORE X_NUC_42.L_CORE 0.004465
K_351 X_NUC_7.L_CORE X_NUC_43.L_CORE 0.004380
K_352 X_NUC_7.L_CORE X_NUC_44.L_CORE 0.004390
K_353 X_NUC_7.L_CORE X_NUC_45.L_CORE 0.005166
K_354 X_NUC_7.L_CORE X_NUC_46.L_CORE 0.005192
K_355 X_NUC_7.L_CORE X_NUC_47.L_CORE 0.005120
K_356 X_NUC_7.L_CORE X_NUC_48.L_CORE 0.005075
K_357 X_NUC_7.L_CORE X_NUC_49.L_CORE 0.004834
K_358 X_NUC_7.L_CORE X_NUC_50.L_CORE 0.004868
K_359 X_NUC_7.L_CORE X_NUC_51.L_CORE 0.004768
K_360 X_NUC_7.L_CORE X_NUC_52.L_CORE 0.004787
K_361 X_NUC_7.L_CORE X_NUC_53.L_CORE 0.006163
K_362 X_NUC_7.L_CORE X_NUC_54.L_CORE 0.011806
K_363 X_NUC_7.L_CORE X_NUC_55.L_CORE 0.004222
K_364 X_NUC_7.L_CORE X_NUC_56.L_CORE 0.004341
K_365 X_NUC_8.L_CORE X_NUC_9.L_CORE 0.006324
K_366 X_NUC_8.L_CORE X_NUC_10.L_CORE 0.006507
K_367 X_NUC_8.L_CORE X_NUC_11.L_CORE 0.006363
K_368 X_NUC_8.L_CORE X_NUC_12.L_CORE 0.006436
K_369 X_NUC_8.L_CORE X_NUC_13.L_CORE 0.008013
K_370 X_NUC_8.L_CORE X_NUC_14.L_CORE 0.008167
K_371 X_NUC_8.L_CORE X_NUC_15.L_CORE 0.008160
K_372 X_NUC_8.L_CORE X_NUC_16.L_CORE 0.007904
K_373 X_NUC_8.L_CORE X_NUC_17.L_CORE 0.009664
K_374 X_NUC_8.L_CORE X_NUC_18.L_CORE 0.009712
K_375 X_NUC_8.L_CORE X_NUC_19.L_CORE 0.009350
K_376 X_NUC_8.L_CORE X_NUC_20.L_CORE 0.009724
K_377 X_NUC_8.L_CORE X_NUC_21.L_CORE 0.004956
K_378 X_NUC_8.L_CORE X_NUC_22.L_CORE 0.005069
K_379 X_NUC_8.L_CORE X_NUC_23.L_CORE 0.004989
K_380 X_NUC_8.L_CORE X_NUC_24.L_CORE 0.004974
K_381 X_NUC_8.L_CORE X_NUC_25.L_CORE 0.009372
K_382 X_NUC_8.L_CORE X_NUC_26.L_CORE 0.009269
K_383 X_NUC_8.L_CORE X_NUC_27.L_CORE 0.009196
K_384 X_NUC_8.L_CORE X_NUC_28.L_CORE 0.008984
K_385 X_NUC_8.L_CORE X_NUC_29.L_CORE 0.005361
K_386 X_NUC_8.L_CORE X_NUC_30.L_CORE 0.005443
K_387 X_NUC_8.L_CORE X_NUC_31.L_CORE 0.005306
K_388 X_NUC_8.L_CORE X_NUC_32.L_CORE 0.005386
K_389 X_NUC_8.L_CORE X_NUC_33.L_CORE 0.004998
K_390 X_NUC_8.L_CORE X_NUC_34.L_CORE 0.005072
K_391 X_NUC_8.L_CORE X_NUC_35.L_CORE 0.005012
K_392 X_NUC_8.L_CORE X_NUC_36.L_CORE 0.004952
K_393 X_NUC_8.L_CORE X_NUC_37.L_CORE 0.006861
K_394 X_NUC_8.L_CORE X_NUC_38.L_CORE 0.006829
K_395 X_NUC_8.L_CORE X_NUC_39.L_CORE 0.006669
K_396 X_NUC_8.L_CORE X_NUC_40.L_CORE 0.006725
K_397 X_NUC_8.L_CORE X_NUC_41.L_CORE 0.004387
K_398 X_NUC_8.L_CORE X_NUC_42.L_CORE 0.004453
K_399 X_NUC_8.L_CORE X_NUC_43.L_CORE 0.004368
K_400 X_NUC_8.L_CORE X_NUC_44.L_CORE 0.004380
K_401 X_NUC_8.L_CORE X_NUC_45.L_CORE 0.005212
K_402 X_NUC_8.L_CORE X_NUC_46.L_CORE 0.005239
K_403 X_NUC_8.L_CORE X_NUC_47.L_CORE 0.005164
K_404 X_NUC_8.L_CORE X_NUC_48.L_CORE 0.005120
K_405 X_NUC_8.L_CORE X_NUC_49.L_CORE 0.004813
K_406 X_NUC_8.L_CORE X_NUC_50.L_CORE 0.004846
K_407 X_NUC_8.L_CORE X_NUC_51.L_CORE 0.004746
K_408 X_NUC_8.L_CORE X_NUC_52.L_CORE 0.004768
K_409 X_NUC_8.L_CORE X_NUC_53.L_CORE 0.006246
K_410 X_NUC_8.L_CORE X_NUC_54.L_CORE 0.011783
K_411 X_NUC_8.L_CORE X_NUC_55.L_CORE 0.004190
K_412 X_NUC_8.L_CORE X_NUC_56.L_CORE 0.004380
K_413 X_NUC_9.L_CORE X_NUC_10.L_CORE 0.207973
K_414 X_NUC_9.L_CORE X_NUC_11.L_CORE 0.207973
K_415 X_NUC_9.L_CORE X_NUC_12.L_CORE 0.207973
K_416 X_NUC_9.L_CORE X_NUC_13.L_CORE 0.005496
K_417 X_NUC_9.L_CORE X_NUC_14.L_CORE 0.005428
K_418 X_NUC_9.L_CORE X_NUC_15.L_CORE 0.005515
K_419 X_NUC_9.L_CORE X_NUC_16.L_CORE 0.005389
K_420 X_NUC_9.L_CORE X_NUC_17.L_CORE 0.007066
K_421 X_NUC_9.L_CORE X_NUC_18.L_CORE 0.006846
K_422 X_NUC_9.L_CORE X_NUC_19.L_CORE 0.006886
K_423 X_NUC_9.L_CORE X_NUC_20.L_CORE 0.006936
K_424 X_NUC_9.L_CORE X_NUC_21.L_CORE 0.009285
K_425 X_NUC_9.L_CORE X_NUC_22.L_CORE 0.009441
K_426 X_NUC_9.L_CORE X_NUC_23.L_CORE 0.009373
K_427 X_NUC_9.L_CORE X_NUC_24.L_CORE 0.009058
K_428 X_NUC_9.L_CORE X_NUC_25.L_CORE 0.004576
K_429 X_NUC_9.L_CORE X_NUC_26.L_CORE 0.004499
K_430 X_NUC_9.L_CORE X_NUC_27.L_CORE 0.004540
K_431 X_NUC_9.L_CORE X_NUC_28.L_CORE 0.004488
K_432 X_NUC_9.L_CORE X_NUC_29.L_CORE 0.009220
K_433 X_NUC_9.L_CORE X_NUC_30.L_CORE 0.009081
K_434 X_NUC_9.L_CORE X_NUC_31.L_CORE 0.008837
K_435 X_NUC_9.L_CORE X_NUC_32.L_CORE 0.009009
K_436 X_NUC_9.L_CORE X_NUC_33.L_CORE 0.005184
K_437 X_NUC_9.L_CORE X_NUC_34.L_CORE 0.005167
K_438 X_NUC_9.L_CORE X_NUC_35.L_CORE 0.005177
K_439 X_NUC_9.L_CORE X_NUC_36.L_CORE 0.005074
K_440 X_NUC_9.L_CORE X_NUC_37.L_CORE 0.004812
K_441 X_NUC_9.L_CORE X_NUC_38.L_CORE 0.004725
K_442 X_NUC_9.L_CORE X_NUC_39.L_CORE 0.004727
K_443 X_NUC_9.L_CORE X_NUC_40.L_CORE 0.004717
K_444 X_NUC_9.L_CORE X_NUC_41.L_CORE 0.006840
K_445 X_NUC_9.L_CORE X_NUC_42.L_CORE 0.006861
K_446 X_NUC_9.L_CORE X_NUC_43.L_CORE 0.006718
K_447 X_NUC_9.L_CORE X_NUC_44.L_CORE 0.006678
K_448 X_NUC_9.L_CORE X_NUC_45.L_CORE 0.004380
K_449 X_NUC_9.L_CORE X_NUC_46.L_CORE 0.004337
K_450 X_NUC_9.L_CORE X_NUC_47.L_CORE 0.004338
K_451 X_NUC_9.L_CORE X_NUC_48.L_CORE 0.004290
K_452 X_NUC_9.L_CORE X_NUC_49.L_CORE 0.005083
K_453 X_NUC_9.L_CORE X_NUC_50.L_CORE 0.005031
K_454 X_NUC_9.L_CORE X_NUC_51.L_CORE 0.004984
K_455 X_NUC_9.L_CORE X_NUC_52.L_CORE 0.004975
K_456 X_NUC_9.L_CORE X_NUC_53.L_CORE 0.007544
K_457 X_NUC_9.L_CORE X_NUC_54.L_CORE 0.004474
K_458 X_NUC_9.L_CORE X_NUC_55.L_CORE 0.008333
K_459 X_NUC_9.L_CORE X_NUC_56.L_CORE 0.003932
K_460 X_NUC_10.L_CORE X_NUC_11.L_CORE 0.207973
K_461 X_NUC_10.L_CORE X_NUC_12.L_CORE 0.207973
K_462 X_NUC_10.L_CORE X_NUC_13.L_CORE 0.005562
K_463 X_NUC_10.L_CORE X_NUC_14.L_CORE 0.005496
K_464 X_NUC_10.L_CORE X_NUC_15.L_CORE 0.005583
K_465 X_NUC_10.L_CORE X_NUC_16.L_CORE 0.005453
K_466 X_NUC_10.L_CORE X_NUC_17.L_CORE 0.007299
K_467 X_NUC_10.L_CORE X_NUC_18.L_CORE 0.007066
K_468 X_NUC_10.L_CORE X_NUC_19.L_CORE 0.007105
K_469 X_NUC_10.L_CORE X_NUC_20.L_CORE 0.007160
K_470 X_NUC_10.L_CORE X_NUC_21.L_CORE 0.009120
K_471 X_NUC_10.L_CORE X_NUC_22.L_CORE 0.009285
K_472 X_NUC_10.L_CORE X_NUC_23.L_CORE 0.009212
K_473 X_NUC_10.L_CORE X_NUC_24.L_CORE 0.008913
K_474 X_NUC_10.L_CORE X_NUC_25.L_CORE 0.004656
K_475 X_NUC_10.L_CORE X_NUC_26.L_CORE 0.004576
K_476 X_NUC_10.L_CORE X_NUC_27.L_CORE 0.004619
K_477 X_NUC_10.L_CORE X_NUC_28.L_CORE 0.004564
K_478 X_NUC_10.L_CORE X_NUC_29.L_CORE 0.009348
K_479 X_NUC_10.L_CORE X_NUC_30.L_CORE 0.009220
K_480 X_NUC_10.L_CORE X_NUC_31.L_CORE 0.008957
K_481 X_NUC_10.L_CORE X_NUC_32.L_CORE 0.009137
K_482 X_NUC_10.L_CORE X_NUC_33.L_CORE 0.005198
K_483 X_NUC_10.L_CORE X_NUC_34.L_CORE 0.005184
K_484 X_NUC_10.L_CORE X_NUC_35.L_CORE 0.005193
K_485 X_NUC_10.L_CORE X_NUC_36.L_CORE 0.005089
K_486 X_NUC_10.L_CORE X_NUC_37.L_CORE 0.004902
K_487 X_NUC_10.L_CORE X_NUC_38.L_CORE 0.004812
K_488 X_NUC_10.L_CORE X_NUC_39.L_CORE 0.004813
K_489 X_NUC_10.L_CORE X_NUC_40.L_CORE 0.004803
K_490 X_NUC_10.L_CORE X_NUC_41.L_CORE 0.006812
K_491 X_NUC_10.L_CORE X_NUC_42.L_CORE 0.006840
K_492 X_NUC_10.L_CORE X_NUC_43.L_CORE 0.006695
K_493 X_NUC_10.L_CORE X_NUC_44.L_CORE 0.006655
K_494 X_NUC_10.L_CORE X_NUC_45.L_CORE 0.004422
K_495 X_NUC_10.L_CORE X_NUC_46.L_CORE 0.004380
K_496 X_NUC_10.L_CORE X_NUC_47.L_CORE 0.004379
K_497 X_NUC_10.L_CORE X_NUC_48.L_CORE 0.004330
K_498 X_NUC_10.L_CORE X_NUC_49.L_CORE 0.005134
K_499 X_NUC_10.L_CORE X_NUC_50.L_CORE 0.005083
K_500 X_NUC_10.L_CORE X_NUC_51.L_CORE 0.005033
K_501 X_NUC_10.L_CORE X_NUC_52.L_CORE 0.005024
K_502 X_NUC_10.L_CORE X_NUC_53.L_CORE 0.007547
K_503 X_NUC_10.L_CORE X_NUC_54.L_CORE 0.004568
K_504 X_NUC_10.L_CORE X_NUC_55.L_CORE 0.008228
K_505 X_NUC_10.L_CORE X_NUC_56.L_CORE 0.003956
K_506 X_NUC_11.L_CORE X_NUC_12.L_CORE 0.207973
K_507 X_NUC_11.L_CORE X_NUC_13.L_CORE 0.005473
K_508 X_NUC_11.L_CORE X_NUC_14.L_CORE 0.005408
K_509 X_NUC_11.L_CORE X_NUC_15.L_CORE 0.005496
K_510 X_NUC_11.L_CORE X_NUC_16.L_CORE 0.005370
K_511 X_NUC_11.L_CORE X_NUC_17.L_CORE 0.007251
K_512 X_NUC_11.L_CORE X_NUC_18.L_CORE 0.007019
K_513 X_NUC_11.L_CORE X_NUC_19.L_CORE 0.007066
K_514 X_NUC_11.L_CORE X_NUC_20.L_CORE 0.007116
K_515 X_NUC_11.L_CORE X_NUC_21.L_CORE 0.009182
K_516 X_NUC_11.L_CORE X_NUC_22.L_CORE 0.009342
K_517 X_NUC_11.L_CORE X_NUC_23.L_CORE 0.009285
K_518 X_NUC_11.L_CORE X_NUC_24.L_CORE 0.008971
K_519 X_NUC_11.L_CORE X_NUC_25.L_CORE 0.004611
K_520 X_NUC_11.L_CORE X_NUC_26.L_CORE 0.004533
K_521 X_NUC_11.L_CORE X_NUC_27.L_CORE 0.004576
K_522 X_NUC_11.L_CORE X_NUC_28.L_CORE 0.004522
K_523 X_NUC_11.L_CORE X_NUC_29.L_CORE 0.009638
K_524 X_NUC_11.L_CORE X_NUC_30.L_CORE 0.009489
K_525 X_NUC_11.L_CORE X_NUC_31.L_CORE 0.009220
K_526 X_NUC_11.L_CORE X_NUC_32.L_CORE 0.009407
K_527 X_NUC_11.L_CORE X_NUC_33.L_CORE 0.005188
K_528 X_NUC_11.L_CORE X_NUC_34.L_CORE 0.005172
K_529 X_NUC_11.L_CORE X_NUC_35.L_CORE 0.005184
K_530 X_NUC_11.L_CORE X_NUC_36.L_CORE 0.005079
K_531 X_NUC_11.L_CORE X_NUC_37.L_CORE 0.004900
K_532 X_NUC_11.L_CORE X_NUC_38.L_CORE 0.004809
K_533 X_NUC_11.L_CORE X_NUC_39.L_CORE 0.004812
K_534 X_NUC_11.L_CORE X_NUC_40.L_CORE 0.004801
K_535 X_NUC_11.L_CORE X_NUC_41.L_CORE 0.006961
K_536 X_NUC_11.L_CORE X_NUC_42.L_CORE 0.006987
K_537 X_NUC_11.L_CORE X_NUC_43.L_CORE 0.006840
K_538 X_NUC_11.L_CORE X_NUC_44.L_CORE 0.006794
K_539 X_NUC_11.L_CORE X_NUC_45.L_CORE 0.004421
K_540 X_NUC_11.L_CORE X_NUC_46.L_CORE 0.004379
K_541 X_NUC_11.L_CORE X_NUC_47.L_CORE 0.004380
K_542 X_NUC_11.L_CORE X_NUC_48.L_CORE 0.004330
K_543 X_NUC_11.L_CORE X_NUC_49.L_CORE 0.005185
K_544 X_NUC_11.L_CORE X_NUC_50.L_CORE 0.005131
K_545 X_NUC_11.L_CORE X_NUC_51.L_CORE 0.005083
K_546 X_NUC_11.L_CORE X_NUC_52.L_CORE 0.005072
K_547 X_NUC_11.L_CORE X_NUC_53.L_CORE 0.007365
K_548 X_NUC_11.L_CORE X_NUC_54.L_CORE 0.004520
K_549 X_NUC_11.L_CORE X_NUC_55.L_CORE 0.008545
K_550 X_NUC_11.L_CORE X_NUC_56.L_CORE 0.003959
K_551 X_NUC_12.L_CORE X_NUC_13.L_CORE 0.005604
K_552 X_NUC_12.L_CORE X_NUC_14.L_CORE 0.005535
K_553 X_NUC_12.L_CORE X_NUC_15.L_CORE 0.005627
K_554 X_NUC_12.L_CORE X_NUC_16.L_CORE 0.005496
K_555 X_NUC_12.L_CORE X_NUC_17.L_CORE 0.007194
K_556 X_NUC_12.L_CORE X_NUC_18.L_CORE 0.006967
K_557 X_NUC_12.L_CORE X_NUC_19.L_CORE 0.007009
K_558 X_NUC_12.L_CORE X_NUC_20.L_CORE 0.007066
K_559 X_NUC_12.L_CORE X_NUC_21.L_CORE 0.009510
K_560 X_NUC_12.L_CORE X_NUC_22.L_CORE 0.009688
K_561 X_NUC_12.L_CORE X_NUC_23.L_CORE 0.009614
K_562 X_NUC_12.L_CORE X_NUC_24.L_CORE 0.009285
K_563 X_NUC_12.L_CORE X_NUC_25.L_CORE 0.004667
K_564 X_NUC_12.L_CORE X_NUC_26.L_CORE 0.004586
K_565 X_NUC_12.L_CORE X_NUC_27.L_CORE 0.004630
K_566 X_NUC_12.L_CORE X_NUC_28.L_CORE 0.004576
K_567 X_NUC_12.L_CORE X_NUC_29.L_CORE 0.009428
K_568 X_NUC_12.L_CORE X_NUC_30.L_CORE 0.009288
K_569 X_NUC_12.L_CORE X_NUC_31.L_CORE 0.009027
K_570 X_NUC_12.L_CORE X_NUC_32.L_CORE 0.009220
K_571 X_NUC_12.L_CORE X_NUC_33.L_CORE 0.005298
K_572 X_NUC_12.L_CORE X_NUC_34.L_CORE 0.005281
K_573 X_NUC_12.L_CORE X_NUC_35.L_CORE 0.005292
K_574 X_NUC_12.L_CORE X_NUC_36.L_CORE 0.005184
K_575 X_NUC_12.L_CORE X_NUC_37.L_CORE 0.004910
K_576 X_NUC_12.L_CORE X_NUC_38.L_CORE 0.004819
K_577 X_NUC_12.L_CORE X_NUC_39.L_CORE 0.004821
K_578 X_NUC_12.L_CORE X_NUC_40.L_CORE 0.004812
K_579 X_NUC_12.L_CORE X_NUC_41.L_CORE 0.007006
K_580 X_NUC_12.L_CORE X_NUC_42.L_CORE 0.007033
K_581 X_NUC_12.L_CORE X_NUC_43.L_CORE 0.006879
K_582 X_NUC_12.L_CORE X_NUC_44.L_CORE 0.006840
K_583 X_NUC_12.L_CORE X_NUC_45.L_CORE 0.004474
K_584 X_NUC_12.L_CORE X_NUC_46.L_CORE 0.004430
K_585 X_NUC_12.L_CORE X_NUC_47.L_CORE 0.004430
K_586 X_NUC_12.L_CORE X_NUC_48.L_CORE 0.004380
K_587 X_NUC_12.L_CORE X_NUC_49.L_CORE 0.005196
K_588 X_NUC_12.L_CORE X_NUC_50.L_CORE 0.005142
K_589 X_NUC_12.L_CORE X_NUC_51.L_CORE 0.005092
K_590 X_NUC_12.L_CORE X_NUC_52.L_CORE 0.005083
K_591 X_NUC_12.L_CORE X_NUC_53.L_CORE 0.007622
K_592 X_NUC_12.L_CORE X_NUC_54.L_CORE 0.004543
K_593 X_NUC_12.L_CORE X_NUC_55.L_CORE 0.008449
K_594 X_NUC_12.L_CORE X_NUC_56.L_CORE 0.004006
K_595 X_NUC_13.L_CORE X_NUC_14.L_CORE 0.207973
K_596 X_NUC_13.L_CORE X_NUC_15.L_CORE 0.207973
K_597 X_NUC_13.L_CORE X_NUC_16.L_CORE 0.207973
K_598 X_NUC_13.L_CORE X_NUC_17.L_CORE 0.005013
K_599 X_NUC_13.L_CORE X_NUC_18.L_CORE 0.004981
K_600 X_NUC_13.L_CORE X_NUC_19.L_CORE 0.004932
K_601 X_NUC_13.L_CORE X_NUC_20.L_CORE 0.005047