* Applied Vacuum Engineering (AVE) - SPICE Netlist
* Element: Krypton-84 (Z=36, A=84)
* Auto-generated topological mutual impedance array
* Nodes: 84



* -----------------------------------------------------------------
* NUCLEON (Baseline 6^3_2 Topological Defect)
* -----------------------------------------------------------------
.SUBCKT NUCLEON IN OUT
L_CORE IN OUT 1uH
C_CORE IN OUT 1pF
.ENDS NUCLEON



* -----------------------------------------------------------------
* MACROSCOPIC TOPOLOGY (Nucleon Array)
* -----------------------------------------------------------------
V_STIM NODE_1 0 AC 1 PULSE(0 100k 10n 1n 1n 50n 100n)

X_NUC_1 NODE_1 0 NUCLEON
X_NUC_2 NODE_2 0 NUCLEON
X_NUC_3 NODE_3 0 NUCLEON
X_NUC_4 NODE_4 0 NUCLEON
X_NUC_5 NODE_5 0 NUCLEON
X_NUC_6 NODE_6 0 NUCLEON
X_NUC_7 NODE_7 0 NUCLEON
X_NUC_8 NODE_8 0 NUCLEON
X_NUC_9 NODE_9 0 NUCLEON
X_NUC_10 NODE_10 0 NUCLEON
X_NUC_11 NODE_11 0 NUCLEON
X_NUC_12 NODE_12 0 NUCLEON
X_NUC_13 NODE_13 0 NUCLEON
X_NUC_14 NODE_14 0 NUCLEON
X_NUC_15 NODE_15 0 NUCLEON
X_NUC_16 NODE_16 0 NUCLEON
X_NUC_17 NODE_17 0 NUCLEON
X_NUC_18 NODE_18 0 NUCLEON
X_NUC_19 NODE_19 0 NUCLEON
X_NUC_20 NODE_20 0 NUCLEON
X_NUC_21 NODE_21 0 NUCLEON
X_NUC_22 NODE_22 0 NUCLEON
X_NUC_23 NODE_23 0 NUCLEON
X_NUC_24 NODE_24 0 NUCLEON
X_NUC_25 NODE_25 0 NUCLEON
X_NUC_26 NODE_26 0 NUCLEON
X_NUC_27 NODE_27 0 NUCLEON
X_NUC_28 NODE_28 0 NUCLEON
X_NUC_29 NODE_29 0 NUCLEON
X_NUC_30 NODE_30 0 NUCLEON
X_NUC_31 NODE_31 0 NUCLEON
X_NUC_32 NODE_32 0 NUCLEON
X_NUC_33 NODE_33 0 NUCLEON
X_NUC_34 NODE_34 0 NUCLEON
X_NUC_35 NODE_35 0 NUCLEON
X_NUC_36 NODE_36 0 NUCLEON
X_NUC_37 NODE_37 0 NUCLEON
X_NUC_38 NODE_38 0 NUCLEON
X_NUC_39 NODE_39 0 NUCLEON
X_NUC_40 NODE_40 0 NUCLEON
X_NUC_41 NODE_41 0 NUCLEON
X_NUC_42 NODE_42 0 NUCLEON
X_NUC_43 NODE_43 0 NUCLEON
X_NUC_44 NODE_44 0 NUCLEON
X_NUC_45 NODE_45 0 NUCLEON
X_NUC_46 NODE_46 0 NUCLEON
X_NUC_47 NODE_47 0 NUCLEON
X_NUC_48 NODE_48 0 NUCLEON
X_NUC_49 NODE_49 0 NUCLEON
X_NUC_50 NODE_50 0 NUCLEON
X_NUC_51 NODE_51 0 NUCLEON
X_NUC_52 NODE_52 0 NUCLEON
X_NUC_53 NODE_53 0 NUCLEON
X_NUC_54 NODE_54 0 NUCLEON
X_NUC_55 NODE_55 0 NUCLEON
X_NUC_56 NODE_56 0 NUCLEON
X_NUC_57 NODE_57 0 NUCLEON
X_NUC_58 NODE_58 0 NUCLEON
X_NUC_59 NODE_59 0 NUCLEON
X_NUC_60 NODE_60 0 NUCLEON
X_NUC_61 NODE_61 0 NUCLEON
X_NUC_62 NODE_62 0 NUCLEON
X_NUC_63 NODE_63 0 NUCLEON
X_NUC_64 NODE_64 0 NUCLEON
X_NUC_65 NODE_65 0 NUCLEON
X_NUC_66 NODE_66 0 NUCLEON
X_NUC_67 NODE_67 0 NUCLEON
X_NUC_68 NODE_68 0 NUCLEON
X_NUC_69 NODE_69 0 NUCLEON
X_NUC_70 NODE_70 0 NUCLEON
X_NUC_71 NODE_71 0 NUCLEON
X_NUC_72 NODE_72 0 NUCLEON
X_NUC_73 NODE_73 0 NUCLEON
X_NUC_74 NODE_74 0 NUCLEON
X_NUC_75 NODE_75 0 NUCLEON
X_NUC_76 NODE_76 0 NUCLEON
X_NUC_77 NODE_77 0 NUCLEON
X_NUC_78 NODE_78 0 NUCLEON
X_NUC_79 NODE_79 0 NUCLEON
X_NUC_80 NODE_80 0 NUCLEON
X_NUC_81 NODE_81 0 NUCLEON
X_NUC_82 NODE_82 0 NUCLEON
X_NUC_83 NODE_83 0 NUCLEON
X_NUC_84 NODE_84 0 NUCLEON


* -----------------------------------------------------------------
* SPATIAL MUTUAL INDUCTANCE (K-FACTORS)
* -----------------------------------------------------------------
K_1 X_NUC_1.L_CORE X_NUC_2.L_CORE 0.207973
K_2 X_NUC_1.L_CORE X_NUC_3.L_CORE 0.207973
K_3 X_NUC_1.L_CORE X_NUC_4.L_CORE 0.207973
K_4 X_NUC_1.L_CORE X_NUC_5.L_CORE 0.007449
K_5 X_NUC_1.L_CORE X_NUC_6.L_CORE 0.007206
K_6 X_NUC_1.L_CORE X_NUC_7.L_CORE 0.007260
K_7 X_NUC_1.L_CORE X_NUC_8.L_CORE 0.007337
K_8 X_NUC_1.L_CORE X_NUC_9.L_CORE 0.008037
K_9 X_NUC_1.L_CORE X_NUC_10.L_CORE 0.008153
K_10 X_NUC_1.L_CORE X_NUC_11.L_CORE 0.007895
K_11 X_NUC_1.L_CORE X_NUC_12.L_CORE 0.008167
K_12 X_NUC_1.L_CORE X_NUC_13.L_CORE 0.008530
K_13 X_NUC_1.L_CORE X_NUC_14.L_CORE 0.008367
K_14 X_NUC_1.L_CORE X_NUC_15.L_CORE 0.008463
K_15 X_NUC_1.L_CORE X_NUC_16.L_CORE 0.008215
K_16 X_NUC_1.L_CORE X_NUC_17.L_CORE 0.004881
K_17 X_NUC_1.L_CORE X_NUC_18.L_CORE 0.004815
K_18 X_NUC_1.L_CORE X_NUC_19.L_CORE 0.004779
K_19 X_NUC_1.L_CORE X_NUC_20.L_CORE 0.004861
K_20 X_NUC_1.L_CORE X_NUC_21.L_CORE 0.007144
K_21 X_NUC_1.L_CORE X_NUC_22.L_CORE 0.007335
K_22 X_NUC_1.L_CORE X_NUC_23.L_CORE 0.007118
K_23 X_NUC_1.L_CORE X_NUC_24.L_CORE 0.007127
K_24 X_NUC_1.L_CORE X_NUC_25.L_CORE 0.004846
K_25 X_NUC_1.L_CORE X_NUC_26.L_CORE 0.004754
K_26 X_NUC_1.L_CORE X_NUC_27.L_CORE 0.004769
K_27 X_NUC_1.L_CORE X_NUC_28.L_CORE 0.004749
K_28 X_NUC_1.L_CORE X_NUC_29.L_CORE 0.004405
K_29 X_NUC_1.L_CORE X_NUC_30.L_CORE 0.004409
K_30 X_NUC_1.L_CORE X_NUC_31.L_CORE 0.004333
K_31 X_NUC_1.L_CORE X_NUC_32.L_CORE 0.004409
K_32 X_NUC_1.L_CORE X_NUC_33.L_CORE 0.005488
K_33 X_NUC_1.L_CORE X_NUC_34.L_CORE 0.005510
K_34 X_NUC_1.L_CORE X_NUC_35.L_CORE 0.005461
K_35 X_NUC_1.L_CORE X_NUC_36.L_CORE 0.005378
K_36 X_NUC_1.L_CORE X_NUC_37.L_CORE 0.003768
K_37 X_NUC_1.L_CORE X_NUC_38.L_CORE 0.003721
K_38 X_NUC_1.L_CORE X_NUC_39.L_CORE 0.003703
K_39 X_NUC_1.L_CORE X_NUC_40.L_CORE 0.003728
K_40 X_NUC_1.L_CORE X_NUC_41.L_CORE 0.004344
K_41 X_NUC_1.L_CORE X_NUC_42.L_CORE 0.004388
K_42 X_NUC_1.L_CORE X_NUC_43.L_CORE 0.004298
K_43 X_NUC_1.L_CORE X_NUC_44.L_CORE 0.004334
K_44 X_NUC_1.L_CORE X_NUC_45.L_CORE 0.004060
K_45 X_NUC_1.L_CORE X_NUC_46.L_CORE 0.004025
K_46 X_NUC_1.L_CORE X_NUC_47.L_CORE 0.004014
K_47 X_NUC_1.L_CORE X_NUC_48.L_CORE 0.003983
K_48 X_NUC_1.L_CORE X_NUC_49.L_CORE 0.003437
K_49 X_NUC_1.L_CORE X_NUC_50.L_CORE 0.003422
K_50 X_NUC_1.L_CORE X_NUC_51.L_CORE 0.003384
K_51 X_NUC_1.L_CORE X_NUC_52.L_CORE 0.003418
K_52 X_NUC_1.L_CORE X_NUC_53.L_CORE 0.004015
K_53 X_NUC_1.L_CORE X_NUC_54.L_CORE 0.004039
K_54 X_NUC_1.L_CORE X_NUC_55.L_CORE 0.003982
K_55 X_NUC_1.L_CORE X_NUC_56.L_CORE 0.003970
K_56 X_NUC_1.L_CORE X_NUC_57.L_CORE 0.003339
K_57 X_NUC_1.L_CORE X_NUC_58.L_CORE 0.003310
K_58 X_NUC_1.L_CORE X_NUC_59.L_CORE 0.003292
K_59 X_NUC_1.L_CORE X_NUC_60.L_CORE 0.003294
K_60 X_NUC_1.L_CORE X_NUC_61.L_CORE 0.003354
K_61 X_NUC_1.L_CORE X_NUC_62.L_CORE 0.003359
K_62 X_NUC_1.L_CORE X_NUC_63.L_CORE 0.003311
K_63 X_NUC_1.L_CORE X_NUC_64.L_CORE 0.003333
K_64 X_NUC_1.L_CORE X_NUC_65.L_CORE 0.003418
K_65 X_NUC_1.L_CORE X_NUC_66.L_CORE 0.003412
K_66 X_NUC_1.L_CORE X_NUC_67.L_CORE 0.003381
K_67 X_NUC_1.L_CORE X_NUC_68.L_CORE 0.003372
K_68 X_NUC_1.L_CORE X_NUC_69.L_CORE 0.003103
K_69 X_NUC_1.L_CORE X_NUC_70.L_CORE 0.003091
K_70 X_NUC_1.L_CORE X_NUC_71.L_CORE 0.003061
K_71 X_NUC_1.L_CORE X_NUC_72.L_CORE 0.003072
K_72 X_NUC_1.L_CORE X_NUC_73.L_CORE 0.032209
K_73 X_NUC_1.L_CORE X_NUC_74.L_CORE 0.005803
K_74 X_NUC_1.L_CORE X_NUC_75.L_CORE 0.006086
K_75 X_NUC_1.L_CORE X_NUC_76.L_CORE 0.006005
K_76 X_NUC_1.L_CORE X_NUC_77.L_CORE 0.003819
K_77 X_NUC_1.L_CORE X_NUC_78.L_CORE 0.004966
K_78 X_NUC_1.L_CORE X_NUC_79.L_CORE 0.003666
K_79 X_NUC_1.L_CORE X_NUC_80.L_CORE 0.003390
K_80 X_NUC_1.L_CORE X_NUC_81.L_CORE 0.003770
K_81 X_NUC_1.L_CORE X_NUC_82.L_CORE 0.002964
K_82 X_NUC_1.L_CORE X_NUC_83.L_CORE 0.003140
K_83 X_NUC_1.L_CORE X_NUC_84.L_CORE 0.002945
K_84 X_NUC_2.L_CORE X_NUC_3.L_CORE 0.207973
K_85 X_NUC_2.L_CORE X_NUC_4.L_CORE 0.207973
K_86 X_NUC_2.L_CORE X_NUC_5.L_CORE 0.007709
K_87 X_NUC_2.L_CORE X_NUC_6.L_CORE 0.007449
K_88 X_NUC_2.L_CORE X_NUC_7.L_CORE 0.007504
K_89 X_NUC_2.L_CORE X_NUC_8.L_CORE 0.007590
K_90 X_NUC_2.L_CORE X_NUC_9.L_CORE 0.007914
K_91 X_NUC_2.L_CORE X_NUC_10.L_CORE 0.008037
K_92 X_NUC_2.L_CORE X_NUC_11.L_CORE 0.007784
K_93 X_NUC_2.L_CORE X_NUC_12.L_CORE 0.008044
K_94 X_NUC_2.L_CORE X_NUC_13.L_CORE 0.008689
K_95 X_NUC_2.L_CORE X_NUC_14.L_CORE 0.008530
K_96 X_NUC_2.L_CORE X_NUC_15.L_CORE 0.008625
K_97 X_NUC_2.L_CORE X_NUC_16.L_CORE 0.008363
K_98 X_NUC_2.L_CORE X_NUC_17.L_CORE 0.004947
K_99 X_NUC_2.L_CORE X_NUC_18.L_CORE 0.004881
K_100 X_NUC_2.L_CORE X_NUC_19.L_CORE 0.004842
K_101 X_NUC_2.L_CORE X_NUC_20.L_CORE 0.004927
K_102 X_NUC_2.L_CORE X_NUC_21.L_CORE 0.006959
K_103 X_NUC_2.L_CORE X_NUC_22.L_CORE 0.007144
K_104 X_NUC_2.L_CORE X_NUC_23.L_CORE 0.006939
K_105 X_NUC_2.L_CORE X_NUC_24.L_CORE 0.006947
K_106 X_NUC_2.L_CORE X_NUC_25.L_CORE 0.004942
K_107 X_NUC_2.L_CORE X_NUC_26.L_CORE 0.004846
K_108 X_NUC_2.L_CORE X_NUC_27.L_CORE 0.004861
K_109 X_NUC_2.L_CORE X_NUC_28.L_CORE 0.004840
K_110 X_NUC_2.L_CORE X_NUC_29.L_CORE 0.004400
K_111 X_NUC_2.L_CORE X_NUC_30.L_CORE 0.004405
K_112 X_NUC_2.L_CORE X_NUC_31.L_CORE 0.004329
K_113 X_NUC_2.L_CORE X_NUC_32.L_CORE 0.004405
K_114 X_NUC_2.L_CORE X_NUC_33.L_CORE 0.005462
K_115 X_NUC_2.L_CORE X_NUC_34.L_CORE 0.005488
K_116 X_NUC_2.L_CORE X_NUC_35.L_CORE 0.005437
K_117 X_NUC_2.L_CORE X_NUC_36.L_CORE 0.005355
K_118 X_NUC_2.L_CORE X_NUC_37.L_CORE 0.003816
K_119 X_NUC_2.L_CORE X_NUC_38.L_CORE 0.003768
K_120 X_NUC_2.L_CORE X_NUC_39.L_CORE 0.003750
K_121 X_NUC_2.L_CORE X_NUC_40.L_CORE 0.003775
K_122 X_NUC_2.L_CORE X_NUC_41.L_CORE 0.004300
K_123 X_NUC_2.L_CORE X_NUC_42.L_CORE 0.004344
K_124 X_NUC_2.L_CORE X_NUC_43.L_CORE 0.004256
K_125 X_NUC_2.L_CORE X_NUC_44.L_CORE 0.004290
K_126 X_NUC_2.L_CORE X_NUC_45.L_CORE 0.004095
K_127 X_NUC_2.L_CORE X_NUC_46.L_CORE 0.004060
K_128 X_NUC_2.L_CORE X_NUC_47.L_CORE 0.004048
K_129 X_NUC_2.L_CORE X_NUC_48.L_CORE 0.004017
K_130 X_NUC_2.L_CORE X_NUC_49.L_CORE 0.003452
K_131 X_NUC_2.L_CORE X_NUC_50.L_CORE 0.003437
K_132 X_NUC_2.L_CORE X_NUC_51.L_CORE 0.003398
K_133 X_NUC_2.L_CORE X_NUC_52.L_CORE 0.003432
K_134 X_NUC_2.L_CORE X_NUC_53.L_CORE 0.003990
K_135 X_NUC_2.L_CORE X_NUC_54.L_CORE 0.004015
K_136 X_NUC_2.L_CORE X_NUC_55.L_CORE 0.003958
K_137 X_NUC_2.L_CORE X_NUC_56.L_CORE 0.003946
K_138 X_NUC_2.L_CORE X_NUC_57.L_CORE 0.003368
K_139 X_NUC_2.L_CORE X_NUC_58.L_CORE 0.003339
K_140 X_NUC_2.L_CORE X_NUC_59.L_CORE 0.003320
K_141 X_NUC_2.L_CORE X_NUC_60.L_CORE 0.003323
K_142 X_NUC_2.L_CORE X_NUC_61.L_CORE 0.003348
K_143 X_NUC_2.L_CORE X_NUC_62.L_CORE 0.003354
K_144 X_NUC_2.L_CORE X_NUC_63.L_CORE 0.003306
K_145 X_NUC_2.L_CORE X_NUC_64.L_CORE 0.003328
K_146 X_NUC_2.L_CORE X_NUC_65.L_CORE 0.003423
K_147 X_NUC_2.L_CORE X_NUC_66.L_CORE 0.003418
K_148 X_NUC_2.L_CORE X_NUC_67.L_CORE 0.003387
K_149 X_NUC_2.L_CORE X_NUC_68.L_CORE 0.003377
K_150 X_NUC_2.L_CORE X_NUC_69.L_CORE 0.003113
K_151 X_NUC_2.L_CORE X_NUC_70.L_CORE 0.003103
K_152 X_NUC_2.L_CORE X_NUC_71.L_CORE 0.003072
K_153 X_NUC_2.L_CORE X_NUC_72.L_CORE 0.003082
K_154 X_NUC_2.L_CORE X_NUC_73.L_CORE 0.029815
K_155 X_NUC_2.L_CORE X_NUC_74.L_CORE 0.005963
K_156 X_NUC_2.L_CORE X_NUC_75.L_CORE 0.005999
K_157 X_NUC_2.L_CORE X_NUC_76.L_CORE 0.006069
K_158 X_NUC_2.L_CORE X_NUC_77.L_CORE 0.003858
K_159 X_NUC_2.L_CORE X_NUC_78.L_CORE 0.004880
K_160 X_NUC_2.L_CORE X_NUC_79.L_CORE 0.003715
K_161 X_NUC_2.L_CORE X_NUC_80.L_CORE 0.003387
K_162 X_NUC_2.L_CORE X_NUC_81.L_CORE 0.003761
K_163 X_NUC_2.L_CORE X_NUC_82.L_CORE 0.002987
K_164 X_NUC_2.L_CORE X_NUC_83.L_CORE 0.003127
K_165 X_NUC_2.L_CORE X_NUC_84.L_CORE 0.002954
K_166 X_NUC_3.L_CORE X_NUC_4.L_CORE 0.207973
K_167 X_NUC_3.L_CORE X_NUC_5.L_CORE 0.007644
K_168 X_NUC_3.L_CORE X_NUC_6.L_CORE 0.007386
K_169 X_NUC_3.L_CORE X_NUC_7.L_CORE 0.007449
K_170 X_NUC_3.L_CORE X_NUC_8.L_CORE 0.007528
K_171 X_NUC_3.L_CORE X_NUC_9.L_CORE 0.008174
K_172 X_NUC_3.L_CORE X_NUC_10.L_CORE 0.008303
K_173 X_NUC_3.L_CORE X_NUC_11.L_CORE 0.008037
K_174 X_NUC_3.L_CORE X_NUC_12.L_CORE 0.008317
K_175 X_NUC_3.L_CORE X_NUC_13.L_CORE 0.008585
K_176 X_NUC_3.L_CORE X_NUC_14.L_CORE 0.008425
K_177 X_NUC_3.L_CORE X_NUC_15.L_CORE 0.008530
K_178 X_NUC_3.L_CORE X_NUC_16.L_CORE 0.008270
K_179 X_NUC_3.L_CORE X_NUC_17.L_CORE 0.004987
K_180 X_NUC_3.L_CORE X_NUC_18.L_CORE 0.004918
K_181 X_NUC_3.L_CORE X_NUC_19.L_CORE 0.004881
K_182 X_NUC_3.L_CORE X_NUC_20.L_CORE 0.004967
K_183 X_NUC_3.L_CORE X_NUC_21.L_CORE 0.007161
K_184 X_NUC_3.L_CORE X_NUC_22.L_CORE 0.007359
K_185 X_NUC_3.L_CORE X_NUC_23.L_CORE 0.007144
K_186 X_NUC_3.L_CORE X_NUC_24.L_CORE 0.007149
K_187 X_NUC_3.L_CORE X_NUC_25.L_CORE 0.004925
K_188 X_NUC_3.L_CORE X_NUC_26.L_CORE 0.004829
K_189 X_NUC_3.L_CORE X_NUC_27.L_CORE 0.004846
K_190 X_NUC_3.L_CORE X_NUC_28.L_CORE 0.004823
K_191 X_NUC_3.L_CORE X_NUC_29.L_CORE 0.004479
K_192 X_NUC_3.L_CORE X_NUC_30.L_CORE 0.004484
K_193 X_NUC_3.L_CORE X_NUC_31.L_CORE 0.004405
K_194 X_NUC_3.L_CORE X_NUC_32.L_CORE 0.004484
K_195 X_NUC_3.L_CORE X_NUC_33.L_CORE 0.005511
K_196 X_NUC_3.L_CORE X_NUC_34.L_CORE 0.005536
K_197 X_NUC_3.L_CORE X_NUC_35.L_CORE 0.005488
K_198 X_NUC_3.L_CORE X_NUC_36.L_CORE 0.005402
K_199 X_NUC_3.L_CORE X_NUC_37.L_CORE 0.003835
K_200 X_NUC_3.L_CORE X_NUC_38.L_CORE 0.003786
K_201 X_NUC_3.L_CORE X_NUC_39.L_CORE 0.003768
K_202 X_NUC_3.L_CORE X_NUC_40.L_CORE 0.003793
K_203 X_NUC_3.L_CORE X_NUC_41.L_CORE 0.004390
K_204 X_NUC_3.L_CORE X_NUC_42.L_CORE 0.004436
K_205 X_NUC_3.L_CORE X_NUC_43.L_CORE 0.004344
K_206 X_NUC_3.L_CORE X_NUC_44.L_CORE 0.004380
K_207 X_NUC_3.L_CORE X_NUC_45.L_CORE 0.004106
K_208 X_NUC_3.L_CORE X_NUC_46.L_CORE 0.004071
K_209 X_NUC_3.L_CORE X_NUC_47.L_CORE 0.004060
K_210 X_NUC_3.L_CORE X_NUC_48.L_CORE 0.004028
K_211 X_NUC_3.L_CORE X_NUC_49.L_CORE 0.003493
K_212 X_NUC_3.L_CORE X_NUC_50.L_CORE 0.003478
K_213 X_NUC_3.L_CORE X_NUC_51.L_CORE 0.003437
K_214 X_NUC_3.L_CORE X_NUC_52.L_CORE 0.003473
K_215 X_NUC_3.L_CORE X_NUC_53.L_CORE 0.004048
K_216 X_NUC_3.L_CORE X_NUC_54.L_CORE 0.004073
K_217 X_NUC_3.L_CORE X_NUC_55.L_CORE 0.004015
K_218 X_NUC_3.L_CORE X_NUC_56.L_CORE 0.004003
K_219 X_NUC_3.L_CORE X_NUC_57.L_CORE 0.003387
K_220 X_NUC_3.L_CORE X_NUC_58.L_CORE 0.003357
K_221 X_NUC_3.L_CORE X_NUC_59.L_CORE 0.003339
K_222 X_NUC_3.L_CORE X_NUC_60.L_CORE 0.003341
K_223 X_NUC_3.L_CORE X_NUC_61.L_CORE 0.003397
K_224 X_NUC_3.L_CORE X_NUC_62.L_CORE 0.003403
K_225 X_NUC_3.L_CORE X_NUC_63.L_CORE 0.003354
K_226 X_NUC_3.L_CORE X_NUC_64.L_CORE 0.003377
K_227 X_NUC_3.L_CORE X_NUC_65.L_CORE 0.003455
K_228 X_NUC_3.L_CORE X_NUC_66.L_CORE 0.003449
K_229 X_NUC_3.L_CORE X_NUC_67.L_CORE 0.003418
K_230 X_NUC_3.L_CORE X_NUC_68.L_CORE 0.003407
K_231 X_NUC_3.L_CORE X_NUC_69.L_CORE 0.003145
K_232 X_NUC_3.L_CORE X_NUC_70.L_CORE 0.003133
K_233 X_NUC_3.L_CORE X_NUC_71.L_CORE 0.003103
K_234 X_NUC_3.L_CORE X_NUC_72.L_CORE 0.003113
K_235 X_NUC_3.L_CORE X_NUC_73.L_CORE 0.027894
K_236 X_NUC_3.L_CORE X_NUC_74.L_CORE 0.005908
K_237 X_NUC_3.L_CORE X_NUC_75.L_CORE 0.006148
K_238 X_NUC_3.L_CORE X_NUC_76.L_CORE 0.006019
K_239 X_NUC_3.L_CORE X_NUC_77.L_CORE 0.003885
K_240 X_NUC_3.L_CORE X_NUC_78.L_CORE 0.004977
K_241 X_NUC_3.L_CORE X_NUC_79.L_CORE 0.003712
K_242 X_NUC_3.L_CORE X_NUC_80.L_CORE 0.003436
K_243 X_NUC_3.L_CORE X_NUC_81.L_CORE 0.003793
K_244 X_NUC_3.L_CORE X_NUC_82.L_CORE 0.003006
K_245 X_NUC_3.L_CORE X_NUC_83.L_CORE 0.003171
K_246 X_NUC_3.L_CORE X_NUC_84.L_CORE 0.002977
K_247 X_NUC_4.L_CORE X_NUC_5.L_CORE 0.007556
K_248 X_NUC_4.L_CORE X_NUC_6.L_CORE 0.007307
K_249 X_NUC_4.L_CORE X_NUC_7.L_CORE 0.007364
K_250 X_NUC_4.L_CORE X_NUC_8.L_CORE 0.007449
K_251 X_NUC_4.L_CORE X_NUC_9.L_CORE 0.007902
K_252 X_NUC_4.L_CORE X_NUC_10.L_CORE 0.008018
K_253 X_NUC_4.L_CORE X_NUC_11.L_CORE 0.007772
K_254 X_NUC_4.L_CORE X_NUC_12.L_CORE 0.008037
K_255 X_NUC_4.L_CORE X_NUC_13.L_CORE 0.008870
K_256 X_NUC_4.L_CORE X_NUC_14.L_CORE 0.008693
K_257 X_NUC_4.L_CORE X_NUC_15.L_CORE 0.008801
K_258 X_NUC_4.L_CORE X_NUC_16.L_CORE 0.008530
K_259 X_NUC_4.L_CORE X_NUC_17.L_CORE 0.004898
K_260 X_NUC_4.L_CORE X_NUC_18.L_CORE 0.004833
K_261 X_NUC_4.L_CORE X_NUC_19.L_CORE 0.004797
K_262 X_NUC_4.L_CORE X_NUC_20.L_CORE 0.004881
K_263 X_NUC_4.L_CORE X_NUC_21.L_CORE 0.007152
K_264 X_NUC_4.L_CORE X_NUC_22.L_CORE 0.007349
K_265 X_NUC_4.L_CORE X_NUC_23.L_CORE 0.007130
K_266 X_NUC_4.L_CORE X_NUC_24.L_CORE 0.007144
K_267 X_NUC_4.L_CORE X_NUC_25.L_CORE 0.004948
K_268 X_NUC_4.L_CORE X_NUC_26.L_CORE 0.004851
K_269 X_NUC_4.L_CORE X_NUC_27.L_CORE 0.004867
K_270 X_NUC_4.L_CORE X_NUC_28.L_CORE 0.004846
K_271 X_NUC_4.L_CORE X_NUC_29.L_CORE 0.004400
K_272 X_NUC_4.L_CORE X_NUC_30.L_CORE 0.004404
K_273 X_NUC_4.L_CORE X_NUC_31.L_CORE 0.004329
K_274 X_NUC_4.L_CORE X_NUC_32.L_CORE 0.004405
K_275 X_NUC_4.L_CORE X_NUC_33.L_CORE 0.005601
K_276 X_NUC_4.L_CORE X_NUC_34.L_CORE 0.005626
K_277 X_NUC_4.L_CORE X_NUC_35.L_CORE 0.005574
K_278 X_NUC_4.L_CORE X_NUC_36.L_CORE 0.005488
K_279 X_NUC_4.L_CORE X_NUC_37.L_CORE 0.003809
K_280 X_NUC_4.L_CORE X_NUC_38.L_CORE 0.003760
K_281 X_NUC_4.L_CORE X_NUC_39.L_CORE 0.003742
K_282 X_NUC_4.L_CORE X_NUC_40.L_CORE 0.003768
K_283 X_NUC_4.L_CORE X_NUC_41.L_CORE 0.004353
K_284 X_NUC_4.L_CORE X_NUC_42.L_CORE 0.004398
K_285 X_NUC_4.L_CORE X_NUC_43.L_CORE 0.004308
K_286 X_NUC_4.L_CORE X_NUC_44.L_CORE 0.004344
K_287 X_NUC_4.L_CORE X_NUC_45.L_CORE 0.004140
K_288 X_NUC_4.L_CORE X_NUC_46.L_CORE 0.004103
K_289 X_NUC_4.L_CORE X_NUC_47.L_CORE 0.004092
K_290 X_NUC_4.L_CORE X_NUC_48.L_CORE 0.004060
K_291 X_NUC_4.L_CORE X_NUC_49.L_CORE 0.003456
K_292 X_NUC_4.L_CORE X_NUC_50.L_CORE 0.003442
K_293 X_NUC_4.L_CORE X_NUC_51.L_CORE 0.003402
K_294 X_NUC_4.L_CORE X_NUC_52.L_CORE 0.003437
K_295 X_NUC_4.L_CORE X_NUC_53.L_CORE 0.004060
K_296 X_NUC_4.L_CORE X_NUC_54.L_CORE 0.004086
K_297 X_NUC_4.L_CORE X_NUC_55.L_CORE 0.004026
K_298 X_NUC_4.L_CORE X_NUC_56.L_CORE 0.004015
K_299 X_NUC_4.L_CORE X_NUC_57.L_CORE 0.003384
K_300 X_NUC_4.L_CORE X_NUC_58.L_CORE 0.003354
K_301 X_NUC_4.L_CORE X_NUC_59.L_CORE 0.003336
K_302 X_NUC_4.L_CORE X_NUC_60.L_CORE 0.003339
K_303 X_NUC_4.L_CORE X_NUC_61.L_CORE 0.003374
K_304 X_NUC_4.L_CORE X_NUC_62.L_CORE 0.003380
K_305 X_NUC_4.L_CORE X_NUC_63.L_CORE 0.003331
K_306 X_NUC_4.L_CORE X_NUC_64.L_CORE 0.003354
K_307 X_NUC_4.L_CORE X_NUC_65.L_CORE 0.003465
K_308 X_NUC_4.L_CORE X_NUC_66.L_CORE 0.003459
K_309 X_NUC_4.L_CORE X_NUC_67.L_CORE 0.003427
K_310 X_NUC_4.L_CORE X_NUC_68.L_CORE 0.003418
K_311 X_NUC_4.L_CORE X_NUC_69.L_CORE 0.003134
K_312 X_NUC_4.L_CORE X_NUC_70.L_CORE 0.003123
K_313 X_NUC_4.L_CORE X_NUC_71.L_CORE 0.003092
K_314 X_NUC_4.L_CORE X_NUC_72.L_CORE 0.003103
K_315 X_NUC_4.L_CORE X_NUC_73.L_CORE 0.029824
K_316 X_NUC_4.L_CORE X_NUC_74.L_CORE 0.005866
K_317 X_NUC_4.L_CORE X_NUC_75.L_CORE 0.005999
K_318 X_NUC_4.L_CORE X_NUC_76.L_CORE 0.006167
K_319 X_NUC_4.L_CORE X_NUC_77.L_CORE 0.003832
K_320 X_NUC_4.L_CORE X_NUC_78.L_CORE 0.004980
K_321 X_NUC_4.L_CORE X_NUC_79.L_CORE 0.003726
K_322 X_NUC_4.L_CORE X_NUC_80.L_CORE 0.003395
K_323 X_NUC_4.L_CORE X_NUC_81.L_CORE 0.003825
K_324 X_NUC_4.L_CORE X_NUC_82.L_CORE 0.002993
K_325 X_NUC_4.L_CORE X_NUC_83.L_CORE 0.003159
K_326 X_NUC_4.L_CORE X_NUC_84.L_CORE 0.002980
K_327 X_NUC_5.L_CORE X_NUC_6.L_CORE 0.207973
K_328 X_NUC_5.L_CORE X_NUC_7.L_CORE 0.207973
K_329 X_NUC_5.L_CORE X_NUC_8.L_CORE 0.207973
K_330 X_NUC_5.L_CORE X_NUC_9.L_CORE 0.005320
K_331 X_NUC_5.L_CORE X_NUC_10.L_CORE 0.005450
K_332 X_NUC_5.L_CORE X_NUC_11.L_CORE 0.005348
K_333 X_NUC_5.L_CORE X_NUC_12.L_CORE 0.005399
K_334 X_NUC_5.L_CORE X_NUC_13.L_CORE 0.006523
K_335 X_NUC_5.L_CORE X_NUC_14.L_CORE 0.006618
K_336 X_NUC_5.L_CORE X_NUC_15.L_CORE 0.006623
K_337 X_NUC_5.L_CORE X_NUC_16.L_CORE 0.006448
K_338 X_NUC_5.L_CORE X_NUC_17.L_CORE 0.008119
K_339 X_NUC_5.L_CORE X_NUC_18.L_CORE 0.008136
K_340 X_NUC_5.L_CORE X_NUC_19.L_CORE 0.007894
K_341 X_NUC_5.L_CORE X_NUC_20.L_CORE 0.008169
K_342 X_NUC_5.L_CORE X_NUC_21.L_CORE 0.004044
K_343 X_NUC_5.L_CORE X_NUC_22.L_CORE 0.004119
K_344 X_NUC_5.L_CORE X_NUC_23.L_CORE 0.004070
K_345 X_NUC_5.L_CORE X_NUC_24.L_CORE 0.004058
K_346 X_NUC_5.L_CORE X_NUC_25.L_CORE 0.007751
K_347 X_NUC_5.L_CORE X_NUC_26.L_CORE 0.007646
K_348 X_NUC_5.L_CORE X_NUC_27.L_CORE 0.007646
K_349 X_NUC_5.L_CORE X_NUC_28.L_CORE 0.007477
K_350 X_NUC_5.L_CORE X_NUC_29.L_CORE 0.004382
K_351 X_NUC_5.L_CORE X_NUC_30.L_CORE 0.004437
K_352 X_NUC_5.L_CORE X_NUC_31.L_CORE 0.004348
K_353 X_NUC_5.L_CORE X_NUC_32.L_CORE 0.004408
K_354 X_NUC_5.L_CORE X_NUC_33.L_CORE 0.003992
K_355 X_NUC_5.L_CORE X_NUC_34.L_CORE 0.004040
K_356 X_NUC_5.L_CORE X_NUC_35.L_CORE 0.004011
K_357 X_NUC_5.L_CORE X_NUC_36.L_CORE 0.003965
K_358 X_NUC_5.L_CORE X_NUC_37.L_CORE 0.006039
K_359 X_NUC_5.L_CORE X_NUC_38.L_CORE 0.005974
K_360 X_NUC_5.L_CORE X_NUC_39.L_CORE 0.005874
K_361 X_NUC_5.L_CORE X_NUC_40.L_CORE 0.005931
K_362 X_NUC_5.L_CORE X_NUC_41.L_CORE 0.003423
K_363 X_NUC_5.L_CORE X_NUC_42.L_CORE 0.003470
K_364 X_NUC_5.L_CORE X_NUC_43.L_CORE 0.003419
K_365 X_NUC_5.L_CORE X_NUC_44.L_CORE 0.003429
K_366 X_NUC_5.L_CORE X_NUC_45.L_CORE 0.004374
K_367 X_NUC_5.L_CORE X_NUC_46.L_CORE 0.004380
K_368 X_NUC_5.L_CORE X_NUC_47.L_CORE 0.004354
K_369 X_NUC_5.L_CORE X_NUC_48.L_CORE 0.004299
K_370 X_NUC_5.L_CORE X_NUC_49.L_CORE 0.004053
K_371 X_NUC_5.L_CORE X_NUC_50.L_CORE 0.004069
K_372 X_NUC_5.L_CORE X_NUC_51.L_CORE 0.003995
K_373 X_NUC_5.L_CORE X_NUC_52.L_CORE 0.004039
K_374 X_NUC_5.L_CORE X_NUC_53.L_CORE 0.003243
K_375 X_NUC_5.L_CORE X_NUC_54.L_CORE 0.003277
K_376 X_NUC_5.L_CORE X_NUC_55.L_CORE 0.003241
K_377 X_NUC_5.L_CORE X_NUC_56.L_CORE 0.003228
K_378 X_NUC_5.L_CORE X_NUC_57.L_CORE 0.004218
K_379 X_NUC_5.L_CORE X_NUC_58.L_CORE 0.004204
K_380 X_NUC_5.L_CORE X_NUC_59.L_CORE 0.004157
K_381 X_NUC_5.L_CORE X_NUC_60.L_CORE 0.004148
K_382 X_NUC_5.L_CORE X_NUC_61.L_CORE 0.003251
K_383 X_NUC_5.L_CORE X_NUC_62.L_CORE 0.003277
K_384 X_NUC_5.L_CORE X_NUC_63.L_CORE 0.003227
K_385 X_NUC_5.L_CORE X_NUC_64.L_CORE 0.003241
K_386 X_NUC_5.L_CORE X_NUC_65.L_CORE 0.003332
K_387 X_NUC_5.L_CORE X_NUC_66.L_CORE 0.003349
K_388 X_NUC_5.L_CORE X_NUC_67.L_CORE 0.003315
K_389 X_NUC_5.L_CORE X_NUC_68.L_CORE 0.003299
K_390 X_NUC_5.L_CORE X_NUC_69.L_CORE 0.003418
K_391 X_NUC_5.L_CORE X_NUC_70.L_CORE 0.003427
K_392 X_NUC_5.L_CORE X_NUC_71.L_CORE 0.003381
K_393 X_NUC_5.L_CORE X_NUC_72.L_CORE 0.003387
K_394 X_NUC_5.L_CORE X_NUC_73.L_CORE 0.006353
K_395 X_NUC_5.L_CORE X_NUC_74.L_CORE 0.024444
K_396 X_NUC_5.L_CORE X_NUC_75.L_CORE 0.004375
K_397 X_NUC_5.L_CORE X_NUC_76.L_CORE 0.005100
K_398 X_NUC_5.L_CORE X_NUC_77.L_CORE 0.005761
K_399 X_NUC_5.L_CORE X_NUC_78.L_CORE 0.003314
K_400 X_NUC_5.L_CORE X_NUC_79.L_CORE 0.005051
K_401 X_NUC_5.L_CORE X_NUC_80.L_CORE 0.003447
K_402 X_NUC_5.L_CORE X_NUC_81.L_CORE 0.003187
K_403 X_NUC_5.L_CORE X_NUC_82.L_CORE 0.003840
K_404 X_NUC_5.L_CORE X_NUC_83.L_CORE 0.002860
K_405 X_NUC_5.L_CORE X_NUC_84.L_CORE 0.003086
K_406 X_NUC_6.L_CORE X_NUC_7.L_CORE 0.207973
K_407 X_NUC_6.L_CORE X_NUC_8.L_CORE 0.207973
K_408 X_NUC_6.L_CORE X_NUC_9.L_CORE 0.005197
K_409 X_NUC_6.L_CORE X_NUC_10.L_CORE 0.005320
K_410 X_NUC_6.L_CORE X_NUC_11.L_CORE 0.005225
K_411 X_NUC_6.L_CORE X_NUC_12.L_CORE 0.005272
K_412 X_NUC_6.L_CORE X_NUC_13.L_CORE 0.006425
K_413 X_NUC_6.L_CORE X_NUC_14.L_CORE 0.006523
K_414 X_NUC_6.L_CORE X_NUC_15.L_CORE 0.006524
K_415 X_NUC_6.L_CORE X_NUC_16.L_CORE 0.006357
K_416 X_NUC_6.L_CORE X_NUC_17.L_CORE 0.008090
K_417 X_NUC_6.L_CORE X_NUC_18.L_CORE 0.008119
K_418 X_NUC_6.L_CORE X_NUC_19.L_CORE 0.007873
K_419 X_NUC_6.L_CORE X_NUC_20.L_CORE 0.008145
K_420 X_NUC_6.L_CORE X_NUC_21.L_CORE 0.003970
K_421 X_NUC_6.L_CORE X_NUC_22.L_CORE 0.004044
K_422 X_NUC_6.L_CORE X_NUC_23.L_CORE 0.003996
K_423 X_NUC_6.L_CORE X_NUC_24.L_CORE 0.003985
K_424 X_NUC_6.L_CORE X_NUC_25.L_CORE 0.007848
K_425 X_NUC_6.L_CORE X_NUC_26.L_CORE 0.007751
K_426 X_NUC_6.L_CORE X_NUC_27.L_CORE 0.007745
K_427 X_NUC_6.L_CORE X_NUC_28.L_CORE 0.007570
K_428 X_NUC_6.L_CORE X_NUC_29.L_CORE 0.004327
K_429 X_NUC_6.L_CORE X_NUC_30.L_CORE 0.004382
K_430 X_NUC_6.L_CORE X_NUC_31.L_CORE 0.004295
K_431 X_NUC_6.L_CORE X_NUC_32.L_CORE 0.004353
K_432 X_NUC_6.L_CORE X_NUC_33.L_CORE 0.003944
K_433 X_NUC_6.L_CORE X_NUC_34.L_CORE 0.003992
K_434 X_NUC_6.L_CORE X_NUC_35.L_CORE 0.003963
K_435 X_NUC_6.L_CORE X_NUC_36.L_CORE 0.003919
K_436 X_NUC_6.L_CORE X_NUC_37.L_CORE 0.006100
K_437 X_NUC_6.L_CORE X_NUC_38.L_CORE 0.006039
K_438 X_NUC_6.L_CORE X_NUC_39.L_CORE 0.005933
K_439 X_NUC_6.L_CORE X_NUC_40.L_CORE 0.005992
K_440 X_NUC_6.L_CORE X_NUC_41.L_CORE 0.003378
K_441 X_NUC_6.L_CORE X_NUC_42.L_CORE 0.003423
K_442 X_NUC_6.L_CORE X_NUC_43.L_CORE 0.003374
K_443 X_NUC_6.L_CORE X_NUC_44.L_CORE 0.003383
K_444 X_NUC_6.L_CORE X_NUC_45.L_CORE 0.004366
K_445 X_NUC_6.L_CORE X_NUC_46.L_CORE 0.004374
K_446 X_NUC_6.L_CORE X_NUC_47.L_CORE 0.004347
K_447 X_NUC_6.L_CORE X_NUC_48.L_CORE 0.004292
K_448 X_NUC_6.L_CORE X_NUC_49.L_CORE 0.004037
K_449 X_NUC_6.L_CORE X_NUC_50.L_CORE 0.004053
K_450 X_NUC_6.L_CORE X_NUC_51.L_CORE 0.003980
K_451 X_NUC_6.L_CORE X_NUC_52.L_CORE 0.004023
K_452 X_NUC_6.L_CORE X_NUC_53.L_CORE 0.003209
K_453 X_NUC_6.L_CORE X_NUC_54.L_CORE 0.003243
K_454 X_NUC_6.L_CORE X_NUC_55.L_CORE 0.003207
K_455 X_NUC_6.L_CORE X_NUC_56.L_CORE 0.003195
K_456 X_NUC_6.L_CORE X_NUC_57.L_CORE 0.004231
K_457 X_NUC_6.L_CORE X_NUC_58.L_CORE 0.004218
K_458 X_NUC_6.L_CORE X_NUC_59.L_CORE 0.004170
K_459 X_NUC_6.L_CORE X_NUC_60.L_CORE 0.004161
K_460 X_NUC_6.L_CORE X_NUC_61.L_CORE 0.003225
K_461 X_NUC_6.L_CORE X_NUC_62.L_CORE 0.003251
K_462 X_NUC_6.L_CORE X_NUC_63.L_CORE 0.003202
K_463 X_NUC_6.L_CORE X_NUC_64.L_CORE 0.003216
K_464 X_NUC_6.L_CORE X_NUC_65.L_CORE 0.003315
K_465 X_NUC_6.L_CORE X_NUC_66.L_CORE 0.003332
K_466 X_NUC_6.L_CORE X_NUC_67.L_CORE 0.003298
K_467 X_NUC_6.L_CORE X_NUC_68.L_CORE 0.003282
K_468 X_NUC_6.L_CORE X_NUC_69.L_CORE 0.003408
K_469 X_NUC_6.L_CORE X_NUC_70.L_CORE 0.003418
K_470 X_NUC_6.L_CORE X_NUC_71.L_CORE 0.003371
K_471 X_NUC_6.L_CORE X_NUC_72.L_CORE 0.003377
K_472 X_NUC_6.L_CORE X_NUC_73.L_CORE 0.006183
K_473 X_NUC_6.L_CORE X_NUC_74.L_CORE 0.027620
K_474 X_NUC_6.L_CORE X_NUC_75.L_CORE 0.004293
K_475 X_NUC_6.L_CORE X_NUC_76.L_CORE 0.005059
K_476 X_NUC_6.L_CORE X_NUC_77.L_CORE 0.005777
K_477 X_NUC_6.L_CORE X_NUC_78.L_CORE 0.003267
K_478 X_NUC_6.L_CORE X_NUC_79.L_CORE 0.005099
K_479 X_NUC_6.L_CORE X_NUC_80.L_CORE 0.003419
K_480 X_NUC_6.L_CORE X_NUC_81.L_CORE 0.003162
K_481 X_NUC_6.L_CORE X_NUC_82.L_CORE 0.003855
K_482 X_NUC_6.L_CORE X_NUC_83.L_CORE 0.002837
K_483 X_NUC_6.L_CORE X_NUC_84.L_CORE 0.003079
K_484 X_NUC_7.L_CORE X_NUC_8.L_CORE 0.207973
K_485 X_NUC_7.L_CORE X_NUC_9.L_CORE 0.005290
K_486 X_NUC_7.L_CORE X_NUC_10.L_CORE 0.005418
K_487 X_NUC_7.L_CORE X_NUC_11.L_CORE 0.005320
K_488 X_NUC_7.L_CORE X_NUC_12.L_CORE 0.005368
K_489 X_NUC_7.L_CORE X_NUC_13.L_CORE 0.006420
K_490 X_NUC_7.L_CORE X_NUC_14.L_CORE 0.006515
K_491 X_NUC_7.L_CORE X_NUC_15.L_CORE 0.006523
K_492 X_NUC_7.L_CORE X_NUC_16.L_CORE 0.006352
K_493 X_NUC_7.L_CORE X_NUC_17.L_CORE 0.008350
K_494 X_NUC_7.L_CORE X_NUC_18.L_CORE 0.008376
K_495 X_NUC_7.L_CORE X_NUC_19.L_CORE 0.008119
K_496 X_NUC_7.L_CORE X_NUC_20.L_CORE 0.008412
K_497 X_NUC_7.L_CORE X_NUC_21.L_CORE 0.004016
K_498 X_NUC_7.L_CORE X_NUC_22.L_CORE 0.004091
K_499 X_NUC_7.L_CORE X_NUC_23.L_CORE 0.004044
K_500 X_NUC_7.L_CORE X_NUC_24.L_CORE 0.004031
K_501 X_NUC_7.L_CORE X_NUC_25.L_CORE 0.007848
K_502 X_NUC_7.L_CORE X_NUC_26.L_CORE 0.007746
K_503 X_NUC_7.L_CORE X_NUC_27.L_CORE 0.007751
K_504 X_NUC_7.L_CORE X_NUC_28.L_CORE 0.007570
K_505 X_NUC_7.L_CORE X_NUC_29.L_CORE 0.004414
K_506 X_NUC_7.L_CORE X_NUC_30.L_CORE 0.004472
K_507 X_NUC_7.L_CORE X_NUC_31.L_CORE 0.004382
K_508 X_NUC_7.L_CORE X_NUC_32.L_CORE 0.004442
K_509 X_NUC_7.L_CORE X_NUC_33.L_CORE 0.003972
K_510 X_NUC_7.L_CORE X_NUC_34.L_CORE 0.004020
K_511 X_NUC_7.L_CORE X_NUC_35.L_CORE 0.003992
K_512 X_NUC_7.L_CORE X_NUC_36.L_CORE 0.003946
K_513 X_NUC_7.L_CORE X_NUC_37.L_CORE 0.006213
K_514 X_NUC_7.L_CORE X_NUC_38.L_CORE 0.006146
K_515 X_NUC_7.L_CORE X_NUC_39.L_CORE 0.006039
K_516 X_NUC_7.L_CORE X_NUC_40.L_CORE 0.006099
K_517 X_NUC_7.L_CORE X_NUC_41.L_CORE 0.003427
K_518 X_NUC_7.L_CORE X_NUC_42.L_CORE 0.003474
K_519 X_NUC_7.L_CORE X_NUC_43.L_CORE 0.003423
K_520 X_NUC_7.L_CORE X_NUC_44.L_CORE 0.003433
K_521 X_NUC_7.L_CORE X_NUC_45.L_CORE 0.004392
K_522 X_NUC_7.L_CORE X_NUC_46.L_CORE 0.004399
K_523 X_NUC_7.L_CORE X_NUC_47.L_CORE 0.004374
K_524 X_NUC_7.L_CORE X_NUC_48.L_CORE 0.004317
K_525 X_NUC_7.L_CORE X_NUC_49.L_CORE 0.004113
K_526 X_NUC_7.L_CORE X_NUC_50.L_CORE 0.004130
K_527 X_NUC_7.L_CORE X_NUC_51.L_CORE 0.004053
K_528 X_NUC_7.L_CORE X_NUC_52.L_CORE 0.004098
K_529 X_NUC_7.L_CORE X_NUC_53.L_CORE 0.003244
K_530 X_NUC_7.L_CORE X_NUC_54.L_CORE 0.003278
K_531 X_NUC_7.L_CORE X_NUC_55.L_CORE 0.003243
K_532 X_NUC_7.L_CORE X_NUC_56.L_CORE 0.003229
K_533 X_NUC_7.L_CORE X_NUC_57.L_CORE 0.004280
K_534 X_NUC_7.L_CORE X_NUC_58.L_CORE 0.004266
K_535 X_NUC_7.L_CORE X_NUC_59.L_CORE 0.004218
K_536 X_NUC_7.L_CORE X_NUC_60.L_CORE 0.004208
K_537 X_NUC_7.L_CORE X_NUC_61.L_CORE 0.003274
K_538 X_NUC_7.L_CORE X_NUC_62.L_CORE 0.003301
K_539 X_NUC_7.L_CORE X_NUC_63.L_CORE 0.003251
K_540 X_NUC_7.L_CORE X_NUC_64.L_CORE 0.003264
K_541 X_NUC_7.L_CORE X_NUC_65.L_CORE 0.003349
K_542 X_NUC_7.L_CORE X_NUC_66.L_CORE 0.003366
K_543 X_NUC_7.L_CORE X_NUC_67.L_CORE 0.003332
K_544 X_NUC_7.L_CORE X_NUC_68.L_CORE 0.003315
K_545 X_NUC_7.L_CORE X_NUC_69.L_CORE 0.003455
K_546 X_NUC_7.L_CORE X_NUC_70.L_CORE 0.003465
K_547 X_NUC_7.L_CORE X_NUC_71.L_CORE 0.003418
K_548 X_NUC_7.L_CORE X_NUC_72.L_CORE 0.003423
K_549 X_NUC_7.L_CORE X_NUC_73.L_CORE 0.006198
K_550 X_NUC_7.L_CORE X_NUC_74.L_CORE 0.025408
K_551 X_NUC_7.L_CORE X_NUC_75.L_CORE 0.004359
K_552 X_NUC_7.L_CORE X_NUC_76.L_CORE 0.005048
K_553 X_NUC_7.L_CORE X_NUC_77.L_CORE 0.005898
K_554 X_NUC_7.L_CORE X_NUC_78.L_CORE 0.003300
K_555 X_NUC_7.L_CORE X_NUC_79.L_CORE 0.005111
K_556 X_NUC_7.L_CORE X_NUC_80.L_CORE 0.003476
K_557 X_NUC_7.L_CORE X_NUC_81.L_CORE 0.003185
K_558 X_NUC_7.L_CORE X_NUC_82.L_CORE 0.003904
K_559 X_NUC_7.L_CORE X_NUC_83.L_CORE 0.002873
K_560 X_NUC_7.L_CORE X_NUC_84.L_CORE 0.003109
K_561 X_NUC_8.L_CORE X_NUC_9.L_CORE 0.005242
K_562 X_NUC_8.L_CORE X_NUC_10.L_CORE 0.005367
K_563 X_NUC_8.L_CORE X_NUC_11.L_CORE 0.005270
K_564 X_NUC_8.L_CORE X_NUC_12.L_CORE 0.005320
K_565 X_NUC_8.L_CORE X_NUC_13.L_CORE 0.006593
K_566 X_NUC_8.L_CORE X_NUC_14.L_CORE 0.006695
K_567 X_NUC_8.L_CORE X_NUC_15.L_CORE 0.006700
K_568 X_NUC_8.L_CORE X_NUC_16.L_CORE 0.006523
K_569 X_NUC_8.L_CORE X_NUC_17.L_CORE 0.008057
K_570 X_NUC_8.L_CORE X_NUC_18.L_CORE 0.008080
K_571 X_NUC_8.L_CORE X_NUC_19.L_CORE 0.007843
K_572 X_NUC_8.L_CORE X_NUC_20.L_CORE 0.008119
K_573 X_NUC_8.L_CORE X_NUC_21.L_CORE 0.004028
K_574 X_NUC_8.L_CORE X_NUC_22.L_CORE 0.004103
K_575 X_NUC_8.L_CORE X_NUC_23.L_CORE 0.004054
K_576 X_NUC_8.L_CORE X_NUC_24.L_CORE 0.004044
K_577 X_NUC_8.L_CORE X_NUC_25.L_CORE 0.008044
K_578 X_NUC_8.L_CORE X_NUC_26.L_CORE 0.007934
K_579 X_NUC_8.L_CORE X_NUC_27.L_CORE 0.007933
K_580 X_NUC_8.L_CORE X_NUC_28.L_CORE 0.007751
K_581 X_NUC_8.L_CORE X_NUC_29.L_CORE 0.004354
K_582 X_NUC_8.L_CORE X_NUC_30.L_CORE 0.004410
K_583 X_NUC_8.L_CORE X_NUC_31.L_CORE 0.004322
K_584 X_NUC_8.L_CORE X_NUC_32.L_CORE 0.004382
K_585 X_NUC_8.L_CORE X_NUC_33.L_CORE 0.004017
K_586 X_NUC_8.L_CORE X_NUC_34.L_CORE 0.004067
K_587 X_NUC_8.L_CORE X_NUC_35.L_CORE 0.004038
K_588 X_NUC_8.L_CORE X_NUC_36.L_CORE 0.003992