* Applied Vacuum Engineering (AVE) - SPICE Netlist
* Element: Strontium-88 (Z=38, A=88)
* Auto-generated topological mutual impedance array
* Nodes: 88



* -----------------------------------------------------------------
* NUCLEON (Baseline 6^3_2 Topological Defect)
* -----------------------------------------------------------------
.SUBCKT NUCLEON IN OUT
L_CORE IN OUT 1uH
C_CORE IN OUT 1pF
.ENDS NUCLEON



* -----------------------------------------------------------------
* MACROSCOPIC TOPOLOGY (Nucleon Array)
* -----------------------------------------------------------------
V_STIM NODE_1 0 AC 1 PULSE(0 100k 10n 1n 1n 50n 100n)

X_NUC_1 NODE_1 0 NUCLEON
X_NUC_2 NODE_2 0 NUCLEON
X_NUC_3 NODE_3 0 NUCLEON
X_NUC_4 NODE_4 0 NUCLEON
X_NUC_5 NODE_5 0 NUCLEON
X_NUC_6 NODE_6 0 NUCLEON
X_NUC_7 NODE_7 0 NUCLEON
X_NUC_8 NODE_8 0 NUCLEON
X_NUC_9 NODE_9 0 NUCLEON
X_NUC_10 NODE_10 0 NUCLEON
X_NUC_11 NODE_11 0 NUCLEON
X_NUC_12 NODE_12 0 NUCLEON
X_NUC_13 NODE_13 0 NUCLEON
X_NUC_14 NODE_14 0 NUCLEON
X_NUC_15 NODE_15 0 NUCLEON
X_NUC_16 NODE_16 0 NUCLEON
X_NUC_17 NODE_17 0 NUCLEON
X_NUC_18 NODE_18 0 NUCLEON
X_NUC_19 NODE_19 0 NUCLEON
X_NUC_20 NODE_20 0 NUCLEON
X_NUC_21 NODE_21 0 NUCLEON
X_NUC_22 NODE_22 0 NUCLEON
X_NUC_23 NODE_23 0 NUCLEON
X_NUC_24 NODE_24 0 NUCLEON
X_NUC_25 NODE_25 0 NUCLEON
X_NUC_26 NODE_26 0 NUCLEON
X_NUC_27 NODE_27 0 NUCLEON
X_NUC_28 NODE_28 0 NUCLEON
X_NUC_29 NODE_29 0 NUCLEON
X_NUC_30 NODE_30 0 NUCLEON
X_NUC_31 NODE_31 0 NUCLEON
X_NUC_32 NODE_32 0 NUCLEON
X_NUC_33 NODE_33 0 NUCLEON
X_NUC_34 NODE_34 0 NUCLEON
X_NUC_35 NODE_35 0 NUCLEON
X_NUC_36 NODE_36 0 NUCLEON
X_NUC_37 NODE_37 0 NUCLEON
X_NUC_38 NODE_38 0 NUCLEON
X_NUC_39 NODE_39 0 NUCLEON
X_NUC_40 NODE_40 0 NUCLEON
X_NUC_41 NODE_41 0 NUCLEON
X_NUC_42 NODE_42 0 NUCLEON
X_NUC_43 NODE_43 0 NUCLEON
X_NUC_44 NODE_44 0 NUCLEON
X_NUC_45 NODE_45 0 NUCLEON
X_NUC_46 NODE_46 0 NUCLEON
X_NUC_47 NODE_47 0 NUCLEON
X_NUC_48 NODE_48 0 NUCLEON
X_NUC_49 NODE_49 0 NUCLEON
X_NUC_50 NODE_50 0 NUCLEON
X_NUC_51 NODE_51 0 NUCLEON
X_NUC_52 NODE_52 0 NUCLEON
X_NUC_53 NODE_53 0 NUCLEON
X_NUC_54 NODE_54 0 NUCLEON
X_NUC_55 NODE_55 0 NUCLEON
X_NUC_56 NODE_56 0 NUCLEON
X_NUC_57 NODE_57 0 NUCLEON
X_NUC_58 NODE_58 0 NUCLEON
X_NUC_59 NODE_59 0 NUCLEON
X_NUC_60 NODE_60 0 NUCLEON
X_NUC_61 NODE_61 0 NUCLEON
X_NUC_62 NODE_62 0 NUCLEON
X_NUC_63 NODE_63 0 NUCLEON
X_NUC_64 NODE_64 0 NUCLEON
X_NUC_65 NODE_65 0 NUCLEON
X_NUC_66 NODE_66 0 NUCLEON
X_NUC_67 NODE_67 0 NUCLEON
X_NUC_68 NODE_68 0 NUCLEON
X_NUC_69 NODE_69 0 NUCLEON
X_NUC_70 NODE_70 0 NUCLEON
X_NUC_71 NODE_71 0 NUCLEON
X_NUC_72 NODE_72 0 NUCLEON
X_NUC_73 NODE_73 0 NUCLEON
X_NUC_74 NODE_74 0 NUCLEON
X_NUC_75 NODE_75 0 NUCLEON
X_NUC_76 NODE_76 0 NUCLEON
X_NUC_77 NODE_77 0 NUCLEON
X_NUC_78 NODE_78 0 NUCLEON
X_NUC_79 NODE_79 0 NUCLEON
X_NUC_80 NODE_80 0 NUCLEON
X_NUC_81 NODE_81 0 NUCLEON
X_NUC_82 NODE_82 0 NUCLEON
X_NUC_83 NODE_83 0 NUCLEON
X_NUC_84 NODE_84 0 NUCLEON
X_NUC_85 NODE_85 0 NUCLEON
X_NUC_86 NODE_86 0 NUCLEON
X_NUC_87 NODE_87 0 NUCLEON
X_NUC_88 NODE_88 0 NUCLEON


* -----------------------------------------------------------------
* SPATIAL MUTUAL INDUCTANCE (K-FACTORS)
* -----------------------------------------------------------------
K_1 X_NUC_1.L_CORE X_NUC_2.L_CORE 0.207973
K_2 X_NUC_1.L_CORE X_NUC_3.L_CORE 0.207973
K_3 X_NUC_1.L_CORE X_NUC_4.L_CORE 0.207973
K_4 X_NUC_1.L_CORE X_NUC_5.L_CORE 0.007349
K_5 X_NUC_1.L_CORE X_NUC_6.L_CORE 0.007111
K_6 X_NUC_1.L_CORE X_NUC_7.L_CORE 0.007165
K_7 X_NUC_1.L_CORE X_NUC_8.L_CORE 0.007240
K_8 X_NUC_1.L_CORE X_NUC_9.L_CORE 0.007930
K_9 X_NUC_1.L_CORE X_NUC_10.L_CORE 0.008043
K_10 X_NUC_1.L_CORE X_NUC_11.L_CORE 0.007793
K_11 X_NUC_1.L_CORE X_NUC_12.L_CORE 0.008058
K_12 X_NUC_1.L_CORE X_NUC_13.L_CORE 0.008426
K_13 X_NUC_1.L_CORE X_NUC_14.L_CORE 0.008266
K_14 X_NUC_1.L_CORE X_NUC_15.L_CORE 0.008364
K_15 X_NUC_1.L_CORE X_NUC_16.L_CORE 0.008119
K_16 X_NUC_1.L_CORE X_NUC_17.L_CORE 0.004809
K_17 X_NUC_1.L_CORE X_NUC_18.L_CORE 0.004745
K_18 X_NUC_1.L_CORE X_NUC_19.L_CORE 0.004711
K_19 X_NUC_1.L_CORE X_NUC_20.L_CORE 0.004791
K_20 X_NUC_1.L_CORE X_NUC_21.L_CORE 0.007069
K_21 X_NUC_1.L_CORE X_NUC_22.L_CORE 0.007260
K_22 X_NUC_1.L_CORE X_NUC_23.L_CORE 0.007049
K_23 X_NUC_1.L_CORE X_NUC_24.L_CORE 0.007057
K_24 X_NUC_1.L_CORE X_NUC_25.L_CORE 0.004777
K_25 X_NUC_1.L_CORE X_NUC_26.L_CORE 0.004687
K_26 X_NUC_1.L_CORE X_NUC_27.L_CORE 0.004704
K_27 X_NUC_1.L_CORE X_NUC_28.L_CORE 0.004683
K_28 X_NUC_1.L_CORE X_NUC_29.L_CORE 0.004340
K_29 X_NUC_1.L_CORE X_NUC_30.L_CORE 0.004344
K_30 X_NUC_1.L_CORE X_NUC_31.L_CORE 0.004271
K_31 X_NUC_1.L_CORE X_NUC_32.L_CORE 0.004345
K_32 X_NUC_1.L_CORE X_NUC_33.L_CORE 0.005441
K_33 X_NUC_1.L_CORE X_NUC_34.L_CORE 0.005464
K_34 X_NUC_1.L_CORE X_NUC_35.L_CORE 0.005418
K_35 X_NUC_1.L_CORE X_NUC_36.L_CORE 0.005333
K_36 X_NUC_1.L_CORE X_NUC_37.L_CORE 0.003706
K_37 X_NUC_1.L_CORE X_NUC_38.L_CORE 0.003659
K_38 X_NUC_1.L_CORE X_NUC_39.L_CORE 0.003643
K_39 X_NUC_1.L_CORE X_NUC_40.L_CORE 0.003667
K_40 X_NUC_1.L_CORE X_NUC_41.L_CORE 0.004295
K_41 X_NUC_1.L_CORE X_NUC_42.L_CORE 0.004340
K_42 X_NUC_1.L_CORE X_NUC_43.L_CORE 0.004252
K_43 X_NUC_1.L_CORE X_NUC_44.L_CORE 0.004287
K_44 X_NUC_1.L_CORE X_NUC_45.L_CORE 0.004012
K_45 X_NUC_1.L_CORE X_NUC_46.L_CORE 0.003976
K_46 X_NUC_1.L_CORE X_NUC_47.L_CORE 0.003968
K_47 X_NUC_1.L_CORE X_NUC_48.L_CORE 0.003936
K_48 X_NUC_1.L_CORE X_NUC_49.L_CORE 0.003375
K_49 X_NUC_1.L_CORE X_NUC_50.L_CORE 0.003360
K_50 X_NUC_1.L_CORE X_NUC_51.L_CORE 0.003323
K_51 X_NUC_1.L_CORE X_NUC_52.L_CORE 0.003358
K_52 X_NUC_1.L_CORE X_NUC_53.L_CORE 0.003995
K_53 X_NUC_1.L_CORE X_NUC_54.L_CORE 0.004022
K_54 X_NUC_1.L_CORE X_NUC_55.L_CORE 0.003965
K_55 X_NUC_1.L_CORE X_NUC_56.L_CORE 0.003952
K_56 X_NUC_1.L_CORE X_NUC_57.L_CORE 0.003279
K_57 X_NUC_1.L_CORE X_NUC_58.L_CORE 0.003249
K_58 X_NUC_1.L_CORE X_NUC_59.L_CORE 0.003234
K_59 X_NUC_1.L_CORE X_NUC_60.L_CORE 0.003236
K_60 X_NUC_1.L_CORE X_NUC_61.L_CORE 0.003304
K_61 X_NUC_1.L_CORE X_NUC_62.L_CORE 0.003311
K_62 X_NUC_1.L_CORE X_NUC_63.L_CORE 0.003263
K_63 X_NUC_1.L_CORE X_NUC_64.L_CORE 0.003287
K_64 X_NUC_1.L_CORE X_NUC_65.L_CORE 0.003408
K_65 X_NUC_1.L_CORE X_NUC_66.L_CORE 0.003402
K_66 X_NUC_1.L_CORE X_NUC_67.L_CORE 0.003374
K_67 X_NUC_1.L_CORE X_NUC_68.L_CORE 0.003360
K_68 X_NUC_1.L_CORE X_NUC_69.L_CORE 0.003005
K_69 X_NUC_1.L_CORE X_NUC_70.L_CORE 0.002991
K_70 X_NUC_1.L_CORE X_NUC_71.L_CORE 0.002965
K_71 X_NUC_1.L_CORE X_NUC_72.L_CORE 0.002977
K_72 X_NUC_1.L_CORE X_NUC_73.L_CORE 0.003123
K_73 X_NUC_1.L_CORE X_NUC_74.L_CORE 0.003125
K_74 X_NUC_1.L_CORE X_NUC_75.L_CORE 0.003089
K_75 X_NUC_1.L_CORE X_NUC_76.L_CORE 0.003094
K_76 X_NUC_1.L_CORE X_NUC_77.L_CORE 0.031286
K_77 X_NUC_1.L_CORE X_NUC_78.L_CORE 0.005643
K_78 X_NUC_1.L_CORE X_NUC_79.L_CORE 0.005882
K_79 X_NUC_1.L_CORE X_NUC_80.L_CORE 0.005778
K_80 X_NUC_1.L_CORE X_NUC_81.L_CORE 0.003701
K_81 X_NUC_1.L_CORE X_NUC_82.L_CORE 0.004767
K_82 X_NUC_1.L_CORE X_NUC_83.L_CORE 0.003541
K_83 X_NUC_1.L_CORE X_NUC_84.L_CORE 0.003275
K_84 X_NUC_1.L_CORE X_NUC_85.L_CORE 0.003625
K_85 X_NUC_1.L_CORE X_NUC_86.L_CORE 0.002864
K_86 X_NUC_1.L_CORE X_NUC_87.L_CORE 0.003025
K_87 X_NUC_1.L_CORE X_NUC_88.L_CORE 0.002839
K_88 X_NUC_2.L_CORE X_NUC_3.L_CORE 0.207973
K_89 X_NUC_2.L_CORE X_NUC_4.L_CORE 0.207973
K_90 X_NUC_2.L_CORE X_NUC_5.L_CORE 0.007601
K_91 X_NUC_2.L_CORE X_NUC_6.L_CORE 0.007349
K_92 X_NUC_2.L_CORE X_NUC_7.L_CORE 0.007403
K_93 X_NUC_2.L_CORE X_NUC_8.L_CORE 0.007486
K_94 X_NUC_2.L_CORE X_NUC_9.L_CORE 0.007809
K_95 X_NUC_2.L_CORE X_NUC_10.L_CORE 0.007930
K_96 X_NUC_2.L_CORE X_NUC_11.L_CORE 0.007685
K_97 X_NUC_2.L_CORE X_NUC_12.L_CORE 0.007938
K_98 X_NUC_2.L_CORE X_NUC_13.L_CORE 0.008582
K_99 X_NUC_2.L_CORE X_NUC_14.L_CORE 0.008426
K_100 X_NUC_2.L_CORE X_NUC_15.L_CORE 0.008523
K_101 X_NUC_2.L_CORE X_NUC_16.L_CORE 0.008265
K_102 X_NUC_2.L_CORE X_NUC_17.L_CORE 0.004873
K_103 X_NUC_2.L_CORE X_NUC_18.L_CORE 0.004809
K_104 X_NUC_2.L_CORE X_NUC_19.L_CORE 0.004772
K_105 X_NUC_2.L_CORE X_NUC_20.L_CORE 0.004855
K_106 X_NUC_2.L_CORE X_NUC_21.L_CORE 0.006885
K_107 X_NUC_2.L_CORE X_NUC_22.L_CORE 0.007069
K_108 X_NUC_2.L_CORE X_NUC_23.L_CORE 0.006870
K_109 X_NUC_2.L_CORE X_NUC_24.L_CORE 0.006878
K_110 X_NUC_2.L_CORE X_NUC_25.L_CORE 0.004871
K_111 X_NUC_2.L_CORE X_NUC_26.L_CORE 0.004777
K_112 X_NUC_2.L_CORE X_NUC_27.L_CORE 0.004794
K_113 X_NUC_2.L_CORE X_NUC_28.L_CORE 0.004772
K_114 X_NUC_2.L_CORE X_NUC_29.L_CORE 0.004335
K_115 X_NUC_2.L_CORE X_NUC_30.L_CORE 0.004340
K_116 X_NUC_2.L_CORE X_NUC_31.L_CORE 0.004266
K_117 X_NUC_2.L_CORE X_NUC_32.L_CORE 0.004341
K_118 X_NUC_2.L_CORE X_NUC_33.L_CORE 0.005414
K_119 X_NUC_2.L_CORE X_NUC_34.L_CORE 0.005441
K_120 X_NUC_2.L_CORE X_NUC_35.L_CORE 0.005393
K_121 X_NUC_2.L_CORE X_NUC_36.L_CORE 0.005310
K_122 X_NUC_2.L_CORE X_NUC_37.L_CORE 0.003753
K_123 X_NUC_2.L_CORE X_NUC_38.L_CORE 0.003706
K_124 X_NUC_2.L_CORE X_NUC_39.L_CORE 0.003689
K_125 X_NUC_2.L_CORE X_NUC_40.L_CORE 0.003714
K_126 X_NUC_2.L_CORE X_NUC_41.L_CORE 0.004249
K_127 X_NUC_2.L_CORE X_NUC_42.L_CORE 0.004295
K_128 X_NUC_2.L_CORE X_NUC_43.L_CORE 0.004208
K_129 X_NUC_2.L_CORE X_NUC_44.L_CORE 0.004243
K_130 X_NUC_2.L_CORE X_NUC_45.L_CORE 0.004047
K_131 X_NUC_2.L_CORE X_NUC_46.L_CORE 0.004012
K_132 X_NUC_2.L_CORE X_NUC_47.L_CORE 0.004003
K_133 X_NUC_2.L_CORE X_NUC_48.L_CORE 0.003970
K_134 X_NUC_2.L_CORE X_NUC_49.L_CORE 0.003390
K_135 X_NUC_2.L_CORE X_NUC_50.L_CORE 0.003375
K_136 X_NUC_2.L_CORE X_NUC_51.L_CORE 0.003337
K_137 X_NUC_2.L_CORE X_NUC_52.L_CORE 0.003372
K_138 X_NUC_2.L_CORE X_NUC_53.L_CORE 0.003966
K_139 X_NUC_2.L_CORE X_NUC_54.L_CORE 0.003995
K_140 X_NUC_2.L_CORE X_NUC_55.L_CORE 0.003938
K_141 X_NUC_2.L_CORE X_NUC_56.L_CORE 0.003925
K_142 X_NUC_2.L_CORE X_NUC_57.L_CORE 0.003309
K_143 X_NUC_2.L_CORE X_NUC_58.L_CORE 0.003279
K_144 X_NUC_2.L_CORE X_NUC_59.L_CORE 0.003263
K_145 X_NUC_2.L_CORE X_NUC_60.L_CORE 0.003265
K_146 X_NUC_2.L_CORE X_NUC_61.L_CORE 0.003296
K_147 X_NUC_2.L_CORE X_NUC_62.L_CORE 0.003304
K_148 X_NUC_2.L_CORE X_NUC_63.L_CORE 0.003256
K_149 X_NUC_2.L_CORE X_NUC_64.L_CORE 0.003280
K_150 X_NUC_2.L_CORE X_NUC_65.L_CORE 0.003413
K_151 X_NUC_2.L_CORE X_NUC_66.L_CORE 0.003408
K_152 X_NUC_2.L_CORE X_NUC_67.L_CORE 0.003379
K_153 X_NUC_2.L_CORE X_NUC_68.L_CORE 0.003366
K_154 X_NUC_2.L_CORE X_NUC_69.L_CORE 0.003019
K_155 X_NUC_2.L_CORE X_NUC_70.L_CORE 0.003005
K_156 X_NUC_2.L_CORE X_NUC_71.L_CORE 0.002978
K_157 X_NUC_2.L_CORE X_NUC_72.L_CORE 0.002991
K_158 X_NUC_2.L_CORE X_NUC_73.L_CORE 0.003120
K_159 X_NUC_2.L_CORE X_NUC_74.L_CORE 0.003123
K_160 X_NUC_2.L_CORE X_NUC_75.L_CORE 0.003086
K_161 X_NUC_2.L_CORE X_NUC_76.L_CORE 0.003092
K_162 X_NUC_2.L_CORE X_NUC_77.L_CORE 0.028923
K_163 X_NUC_2.L_CORE X_NUC_78.L_CORE 0.005795
K_164 X_NUC_2.L_CORE X_NUC_79.L_CORE 0.005801
K_165 X_NUC_2.L_CORE X_NUC_80.L_CORE 0.005836
K_166 X_NUC_2.L_CORE X_NUC_81.L_CORE 0.003737
K_167 X_NUC_2.L_CORE X_NUC_82.L_CORE 0.004689
K_168 X_NUC_2.L_CORE X_NUC_83.L_CORE 0.003587
K_169 X_NUC_2.L_CORE X_NUC_84.L_CORE 0.003272
K_170 X_NUC_2.L_CORE X_NUC_85.L_CORE 0.003616
K_171 X_NUC_2.L_CORE X_NUC_86.L_CORE 0.002885
K_172 X_NUC_2.L_CORE X_NUC_87.L_CORE 0.003014
K_173 X_NUC_2.L_CORE X_NUC_88.L_CORE 0.002847
K_174 X_NUC_3.L_CORE X_NUC_4.L_CORE 0.207973
K_175 X_NUC_3.L_CORE X_NUC_5.L_CORE 0.007537
K_176 X_NUC_3.L_CORE X_NUC_6.L_CORE 0.007286
K_177 X_NUC_3.L_CORE X_NUC_7.L_CORE 0.007349
K_178 X_NUC_3.L_CORE X_NUC_8.L_CORE 0.007425
K_179 X_NUC_3.L_CORE X_NUC_9.L_CORE 0.008061
K_180 X_NUC_3.L_CORE X_NUC_10.L_CORE 0.008187
K_181 X_NUC_3.L_CORE X_NUC_11.L_CORE 0.007930
K_182 X_NUC_3.L_CORE X_NUC_12.L_CORE 0.008203
K_183 X_NUC_3.L_CORE X_NUC_13.L_CORE 0.008476
K_184 X_NUC_3.L_CORE X_NUC_14.L_CORE 0.008319
K_185 X_NUC_3.L_CORE X_NUC_15.L_CORE 0.008426
K_186 X_NUC_3.L_CORE X_NUC_16.L_CORE 0.008170
K_187 X_NUC_3.L_CORE X_NUC_17.L_CORE 0.004911
K_188 X_NUC_3.L_CORE X_NUC_18.L_CORE 0.004844
K_189 X_NUC_3.L_CORE X_NUC_19.L_CORE 0.004809
K_190 X_NUC_3.L_CORE X_NUC_20.L_CORE 0.004893
K_191 X_NUC_3.L_CORE X_NUC_21.L_CORE 0.007082
K_192 X_NUC_3.L_CORE X_NUC_22.L_CORE 0.007278
K_193 X_NUC_3.L_CORE X_NUC_23.L_CORE 0.007069
K_194 X_NUC_3.L_CORE X_NUC_24.L_CORE 0.007074
K_195 X_NUC_3.L_CORE X_NUC_25.L_CORE 0.004852
K_196 X_NUC_3.L_CORE X_NUC_26.L_CORE 0.004759
K_197 X_NUC_3.L_CORE X_NUC_27.L_CORE 0.004777
K_198 X_NUC_3.L_CORE X_NUC_28.L_CORE 0.004755
K_199 X_NUC_3.L_CORE X_NUC_29.L_CORE 0.004411
K_200 X_NUC_3.L_CORE X_NUC_30.L_CORE 0.004416
K_201 X_NUC_3.L_CORE X_NUC_31.L_CORE 0.004340
K_202 X_NUC_3.L_CORE X_NUC_32.L_CORE 0.004417
K_203 X_NUC_3.L_CORE X_NUC_33.L_CORE 0.005460
K_204 X_NUC_3.L_CORE X_NUC_34.L_CORE 0.005485
K_205 X_NUC_3.L_CORE X_NUC_35.L_CORE 0.005441
K_206 X_NUC_3.L_CORE X_NUC_36.L_CORE 0.005353
K_207 X_NUC_3.L_CORE X_NUC_37.L_CORE 0.003770
K_208 X_NUC_3.L_CORE X_NUC_38.L_CORE 0.003722
K_209 X_NUC_3.L_CORE X_NUC_39.L_CORE 0.003706
K_210 X_NUC_3.L_CORE X_NUC_40.L_CORE 0.003730
K_211 X_NUC_3.L_CORE X_NUC_41.L_CORE 0.004337
K_212 X_NUC_3.L_CORE X_NUC_42.L_CORE 0.004385
K_213 X_NUC_3.L_CORE X_NUC_43.L_CORE 0.004295
K_214 X_NUC_3.L_CORE X_NUC_44.L_CORE 0.004330
K_215 X_NUC_3.L_CORE X_NUC_45.L_CORE 0.004055
K_216 X_NUC_3.L_CORE X_NUC_46.L_CORE 0.004019
K_217 X_NUC_3.L_CORE X_NUC_47.L_CORE 0.004012
K_218 X_NUC_3.L_CORE X_NUC_48.L_CORE 0.003978
K_219 X_NUC_3.L_CORE X_NUC_49.L_CORE 0.003429
K_220 X_NUC_3.L_CORE X_NUC_50.L_CORE 0.003414
K_221 X_NUC_3.L_CORE X_NUC_51.L_CORE 0.003375
K_222 X_NUC_3.L_CORE X_NUC_52.L_CORE 0.003411
K_223 X_NUC_3.L_CORE X_NUC_53.L_CORE 0.004023
K_224 X_NUC_3.L_CORE X_NUC_54.L_CORE 0.004052
K_225 X_NUC_3.L_CORE X_NUC_55.L_CORE 0.003995
K_226 X_NUC_3.L_CORE X_NUC_56.L_CORE 0.003980
K_227 X_NUC_3.L_CORE X_NUC_57.L_CORE 0.003325
K_228 X_NUC_3.L_CORE X_NUC_58.L_CORE 0.003294
K_229 X_NUC_3.L_CORE X_NUC_59.L_CORE 0.003279
K_230 X_NUC_3.L_CORE X_NUC_60.L_CORE 0.003281
K_231 X_NUC_3.L_CORE X_NUC_61.L_CORE 0.003345
K_232 X_NUC_3.L_CORE X_NUC_62.L_CORE 0.003353
K_233 X_NUC_3.L_CORE X_NUC_63.L_CORE 0.003304
K_234 X_NUC_3.L_CORE X_NUC_64.L_CORE 0.003328
K_235 X_NUC_3.L_CORE X_NUC_65.L_CORE 0.003441
K_236 X_NUC_3.L_CORE X_NUC_66.L_CORE 0.003436
K_237 X_NUC_3.L_CORE X_NUC_67.L_CORE 0.003408
K_238 X_NUC_3.L_CORE X_NUC_68.L_CORE 0.003393
K_239 X_NUC_3.L_CORE X_NUC_69.L_CORE 0.003047
K_240 X_NUC_3.L_CORE X_NUC_70.L_CORE 0.003033
K_241 X_NUC_3.L_CORE X_NUC_71.L_CORE 0.003005
K_242 X_NUC_3.L_CORE X_NUC_72.L_CORE 0.003018
K_243 X_NUC_3.L_CORE X_NUC_73.L_CORE 0.003158
K_244 X_NUC_3.L_CORE X_NUC_74.L_CORE 0.003160
K_245 X_NUC_3.L_CORE X_NUC_75.L_CORE 0.003123
K_246 X_NUC_3.L_CORE X_NUC_76.L_CORE 0.003128
K_247 X_NUC_3.L_CORE X_NUC_77.L_CORE 0.027205
K_248 X_NUC_3.L_CORE X_NUC_78.L_CORE 0.005744
K_249 X_NUC_3.L_CORE X_NUC_79.L_CORE 0.005941
K_250 X_NUC_3.L_CORE X_NUC_80.L_CORE 0.005791
K_251 X_NUC_3.L_CORE X_NUC_81.L_CORE 0.003763
K_252 X_NUC_3.L_CORE X_NUC_82.L_CORE 0.004778
K_253 X_NUC_3.L_CORE X_NUC_83.L_CORE 0.003584
K_254 X_NUC_3.L_CORE X_NUC_84.L_CORE 0.003318
K_255 X_NUC_3.L_CORE X_NUC_85.L_CORE 0.003646
K_256 X_NUC_3.L_CORE X_NUC_86.L_CORE 0.002903
K_257 X_NUC_3.L_CORE X_NUC_87.L_CORE 0.003054
K_258 X_NUC_3.L_CORE X_NUC_88.L_CORE 0.002868
K_259 X_NUC_4.L_CORE X_NUC_5.L_CORE 0.007453
K_260 X_NUC_4.L_CORE X_NUC_6.L_CORE 0.007210
K_261 X_NUC_4.L_CORE X_NUC_7.L_CORE 0.007266
K_262 X_NUC_4.L_CORE X_NUC_8.L_CORE 0.007349
K_263 X_NUC_4.L_CORE X_NUC_9.L_CORE 0.007796
K_264 X_NUC_4.L_CORE X_NUC_10.L_CORE 0.007910
K_265 X_NUC_4.L_CORE X_NUC_11.L_CORE 0.007671
K_266 X_NUC_4.L_CORE X_NUC_12.L_CORE 0.007930
K_267 X_NUC_4.L_CORE X_NUC_13.L_CORE 0.008755
K_268 X_NUC_4.L_CORE X_NUC_14.L_CORE 0.008583
K_269 X_NUC_4.L_CORE X_NUC_15.L_CORE 0.008693
K_270 X_NUC_4.L_CORE X_NUC_16.L_CORE 0.008426
K_271 X_NUC_4.L_CORE X_NUC_17.L_CORE 0.004825
K_272 X_NUC_4.L_CORE X_NUC_18.L_CORE 0.004762
K_273 X_NUC_4.L_CORE X_NUC_19.L_CORE 0.004727
K_274 X_NUC_4.L_CORE X_NUC_20.L_CORE 0.004809
K_275 X_NUC_4.L_CORE X_NUC_21.L_CORE 0.007073
K_276 X_NUC_4.L_CORE X_NUC_22.L_CORE 0.007269
K_277 X_NUC_4.L_CORE X_NUC_23.L_CORE 0.007057
K_278 X_NUC_4.L_CORE X_NUC_24.L_CORE 0.007069
K_279 X_NUC_4.L_CORE X_NUC_25.L_CORE 0.004875
K_280 X_NUC_4.L_CORE X_NUC_26.L_CORE 0.004780
K_281 X_NUC_4.L_CORE X_NUC_27.L_CORE 0.004798
K_282 X_NUC_4.L_CORE X_NUC_28.L_CORE 0.004777
K_283 X_NUC_4.L_CORE X_NUC_29.L_CORE 0.004333
K_284 X_NUC_4.L_CORE X_NUC_30.L_CORE 0.004337
K_285 X_NUC_4.L_CORE X_NUC_31.L_CORE 0.004265
K_286 X_NUC_4.L_CORE X_NUC_32.L_CORE 0.004340
K_287 X_NUC_4.L_CORE X_NUC_33.L_CORE 0.005550
K_288 X_NUC_4.L_CORE X_NUC_34.L_CORE 0.005577
K_289 X_NUC_4.L_CORE X_NUC_35.L_CORE 0.005528
K_290 X_NUC_4.L_CORE X_NUC_36.L_CORE 0.005441
K_291 X_NUC_4.L_CORE X_NUC_37.L_CORE 0.003744
K_292 X_NUC_4.L_CORE X_NUC_38.L_CORE 0.003697
K_293 X_NUC_4.L_CORE X_NUC_39.L_CORE 0.003680
K_294 X_NUC_4.L_CORE X_NUC_40.L_CORE 0.003706
K_295 X_NUC_4.L_CORE X_NUC_41.L_CORE 0.004301
K_296 X_NUC_4.L_CORE X_NUC_42.L_CORE 0.004347
K_297 X_NUC_4.L_CORE X_NUC_43.L_CORE 0.004258
K_298 X_NUC_4.L_CORE X_NUC_44.L_CORE 0.004295
K_299 X_NUC_4.L_CORE X_NUC_45.L_CORE 0.004090
K_300 X_NUC_4.L_CORE X_NUC_46.L_CORE 0.004053
K_301 X_NUC_4.L_CORE X_NUC_47.L_CORE 0.004045
K_302 X_NUC_4.L_CORE X_NUC_48.L_CORE 0.004012
K_303 X_NUC_4.L_CORE X_NUC_49.L_CORE 0.003392
K_304 X_NUC_4.L_CORE X_NUC_50.L_CORE 0.003378
K_305 X_NUC_4.L_CORE X_NUC_51.L_CORE 0.003340
K_306 X_NUC_4.L_CORE X_NUC_52.L_CORE 0.003375
K_307 X_NUC_4.L_CORE X_NUC_53.L_CORE 0.004037
K_308 X_NUC_4.L_CORE X_NUC_54.L_CORE 0.004066
K_309 X_NUC_4.L_CORE X_NUC_55.L_CORE 0.004007
K_310 X_NUC_4.L_CORE X_NUC_56.L_CORE 0.003995
K_311 X_NUC_4.L_CORE X_NUC_57.L_CORE 0.003323
K_312 X_NUC_4.L_CORE X_NUC_58.L_CORE 0.003292
K_313 X_NUC_4.L_CORE X_NUC_59.L_CORE 0.003276
K_314 X_NUC_4.L_CORE X_NUC_60.L_CORE 0.003279
K_315 X_NUC_4.L_CORE X_NUC_61.L_CORE 0.003320
K_316 X_NUC_4.L_CORE X_NUC_62.L_CORE 0.003328
K_317 X_NUC_4.L_CORE X_NUC_63.L_CORE 0.003279
K_318 X_NUC_4.L_CORE X_NUC_64.L_CORE 0.003304
K_319 X_NUC_4.L_CORE X_NUC_65.L_CORE 0.003456
K_320 X_NUC_4.L_CORE X_NUC_66.L_CORE 0.003450
K_321 X_NUC_4.L_CORE X_NUC_67.L_CORE 0.003422
K_322 X_NUC_4.L_CORE X_NUC_68.L_CORE 0.003408
K_323 X_NUC_4.L_CORE X_NUC_69.L_CORE 0.003033
K_324 X_NUC_4.L_CORE X_NUC_70.L_CORE 0.003020
K_325 X_NUC_4.L_CORE X_NUC_71.L_CORE 0.002992
K_326 X_NUC_4.L_CORE X_NUC_72.L_CORE 0.003005
K_327 X_NUC_4.L_CORE X_NUC_73.L_CORE 0.003152
K_328 X_NUC_4.L_CORE X_NUC_74.L_CORE 0.003154
K_329 X_NUC_4.L_CORE X_NUC_75.L_CORE 0.003117
K_330 X_NUC_4.L_CORE X_NUC_76.L_CORE 0.003123
K_331 X_NUC_4.L_CORE X_NUC_77.L_CORE 0.029144
K_332 X_NUC_4.L_CORE X_NUC_78.L_CORE 0.005704
K_333 X_NUC_4.L_CORE X_NUC_79.L_CORE 0.005803
K_334 X_NUC_4.L_CORE X_NUC_80.L_CORE 0.005927
K_335 X_NUC_4.L_CORE X_NUC_81.L_CORE 0.003714
K_336 X_NUC_4.L_CORE X_NUC_82.L_CORE 0.004781
K_337 X_NUC_4.L_CORE X_NUC_83.L_CORE 0.003598
K_338 X_NUC_4.L_CORE X_NUC_84.L_CORE 0.003279
K_339 X_NUC_4.L_CORE X_NUC_85.L_CORE 0.003675
K_340 X_NUC_4.L_CORE X_NUC_86.L_CORE 0.002891
K_341 X_NUC_4.L_CORE X_NUC_87.L_CORE 0.003043
K_342 X_NUC_4.L_CORE X_NUC_88.L_CORE 0.002872
K_343 X_NUC_5.L_CORE X_NUC_6.L_CORE 0.207973
K_344 X_NUC_5.L_CORE X_NUC_7.L_CORE 0.207973
K_345 X_NUC_5.L_CORE X_NUC_8.L_CORE 0.207973
K_346 X_NUC_5.L_CORE X_NUC_9.L_CORE 0.005239
K_347 X_NUC_5.L_CORE X_NUC_10.L_CORE 0.005364
K_348 X_NUC_5.L_CORE X_NUC_11.L_CORE 0.005266
K_349 X_NUC_5.L_CORE X_NUC_12.L_CORE 0.005315
K_350 X_NUC_5.L_CORE X_NUC_13.L_CORE 0.006421
K_351 X_NUC_5.L_CORE X_NUC_14.L_CORE 0.006514
K_352 X_NUC_5.L_CORE X_NUC_15.L_CORE 0.006520
K_353 X_NUC_5.L_CORE X_NUC_16.L_CORE 0.006350
K_354 X_NUC_5.L_CORE X_NUC_17.L_CORE 0.008004
K_355 X_NUC_5.L_CORE X_NUC_18.L_CORE 0.008020
K_356 X_NUC_5.L_CORE X_NUC_19.L_CORE 0.007787
K_357 X_NUC_5.L_CORE X_NUC_20.L_CORE 0.008056
K_358 X_NUC_5.L_CORE X_NUC_21.L_CORE 0.003973
K_359 X_NUC_5.L_CORE X_NUC_22.L_CORE 0.004047
K_360 X_NUC_5.L_CORE X_NUC_23.L_CORE 0.004000
K_361 X_NUC_5.L_CORE X_NUC_24.L_CORE 0.003988
K_362 X_NUC_5.L_CORE X_NUC_25.L_CORE 0.007672
K_363 X_NUC_5.L_CORE X_NUC_26.L_CORE 0.007566
K_364 X_NUC_5.L_CORE X_NUC_27.L_CORE 0.007573
K_365 X_NUC_5.L_CORE X_NUC_28.L_CORE 0.007404
K_366 X_NUC_5.L_CORE X_NUC_29.L_CORE 0.004306
K_367 X_NUC_5.L_CORE X_NUC_30.L_CORE 0.004360
K_368 X_NUC_5.L_CORE X_NUC_31.L_CORE 0.004275
K_369 X_NUC_5.L_CORE X_NUC_32.L_CORE 0.004333
K_370 X_NUC_5.L_CORE X_NUC_33.L_CORE 0.003919
K_371 X_NUC_5.L_CORE X_NUC_34.L_CORE 0.003966
K_372 X_NUC_5.L_CORE X_NUC_35.L_CORE 0.003939
K_373 X_NUC_5.L_CORE X_NUC_36.L_CORE 0.003894
K_374 X_NUC_5.L_CORE X_NUC_37.L_CORE 0.006006
K_375 X_NUC_5.L_CORE X_NUC_38.L_CORE 0.005937
K_376 X_NUC_5.L_CORE X_NUC_39.L_CORE 0.005841
K_377 X_NUC_5.L_CORE X_NUC_40.L_CORE 0.005900
K_378 X_NUC_5.L_CORE X_NUC_41.L_CORE 0.003351
K_379 X_NUC_5.L_CORE X_NUC_42.L_CORE 0.003397
K_380 X_NUC_5.L_CORE X_NUC_43.L_CORE 0.003348
K_381 X_NUC_5.L_CORE X_NUC_44.L_CORE 0.003358
K_382 X_NUC_5.L_CORE X_NUC_45.L_CORE 0.004319
K_383 X_NUC_5.L_CORE X_NUC_46.L_CORE 0.004324
K_384 X_NUC_5.L_CORE X_NUC_47.L_CORE 0.004302
K_385 X_NUC_5.L_CORE X_NUC_48.L_CORE 0.004246
K_386 X_NUC_5.L_CORE X_NUC_49.L_CORE 0.003999
K_387 X_NUC_5.L_CORE X_NUC_50.L_CORE 0.004014
K_388 X_NUC_5.L_CORE X_NUC_51.L_CORE 0.003942
K_389 X_NUC_5.L_CORE X_NUC_52.L_CORE 0.003987
K_390 X_NUC_5.L_CORE X_NUC_53.L_CORE 0.003164
K_391 X_NUC_5.L_CORE X_NUC_54.L_CORE 0.003197
K_392 X_NUC_5.L_CORE X_NUC_55.L_CORE 0.003164
K_393 X_NUC_5.L_CORE X_NUC_56.L_CORE 0.003151
K_394 X_NUC_5.L_CORE X_NUC_57.L_CORE 0.004228
K_395 X_NUC_5.L_CORE X_NUC_58.L_CORE 0.004209
K_396 X_NUC_5.L_CORE X_NUC_59.L_CORE 0.004166
K_397 X_NUC_5.L_CORE X_NUC_60.L_CORE 0.004156
K_398 X_NUC_5.L_CORE X_NUC_61.L_CORE 0.003169
K_399 X_NUC_5.L_CORE X_NUC_62.L_CORE 0.003195
K_400 X_NUC_5.L_CORE X_NUC_63.L_CORE 0.003147
K_401 X_NUC_5.L_CORE X_NUC_64.L_CORE 0.003162
K_402 X_NUC_5.L_CORE X_NUC_65.L_CORE 0.003267
K_403 X_NUC_5.L_CORE X_NUC_66.L_CORE 0.003283
K_404 X_NUC_5.L_CORE X_NUC_67.L_CORE 0.003253
K_405 X_NUC_5.L_CORE X_NUC_68.L_CORE 0.003234
K_406 X_NUC_5.L_CORE X_NUC_69.L_CORE 0.003460
K_407 X_NUC_5.L_CORE X_NUC_70.L_CORE 0.003464
K_408 X_NUC_5.L_CORE X_NUC_71.L_CORE 0.003417
K_409 X_NUC_5.L_CORE X_NUC_72.L_CORE 0.003428
K_410 X_NUC_5.L_CORE X_NUC_73.L_CORE 0.003005
K_411 X_NUC_5.L_CORE X_NUC_74.L_CORE 0.003024
K_412 X_NUC_5.L_CORE X_NUC_75.L_CORE 0.002987
K_413 X_NUC_5.L_CORE X_NUC_76.L_CORE 0.002987
K_414 X_NUC_5.L_CORE X_NUC_77.L_CORE 0.006223
K_415 X_NUC_5.L_CORE X_NUC_78.L_CORE 0.022987
K_416 X_NUC_5.L_CORE X_NUC_79.L_CORE 0.004253
K_417 X_NUC_5.L_CORE X_NUC_80.L_CORE 0.004932
K_418 X_NUC_5.L_CORE X_NUC_81.L_CORE 0.005530
K_419 X_NUC_5.L_CORE X_NUC_82.L_CORE 0.003211
K_420 X_NUC_5.L_CORE X_NUC_83.L_CORE 0.004831
K_421 X_NUC_5.L_CORE X_NUC_84.L_CORE 0.003327
K_422 X_NUC_5.L_CORE X_NUC_85.L_CORE 0.003076
K_423 X_NUC_5.L_CORE X_NUC_86.L_CORE 0.003680
K_424 X_NUC_5.L_CORE X_NUC_87.L_CORE 0.002760
K_425 X_NUC_5.L_CORE X_NUC_88.L_CORE 0.002969
K_426 X_NUC_6.L_CORE X_NUC_7.L_CORE 0.207973
K_427 X_NUC_6.L_CORE X_NUC_8.L_CORE 0.207973
K_428 X_NUC_6.L_CORE X_NUC_9.L_CORE 0.005119
K_429 X_NUC_6.L_CORE X_NUC_10.L_CORE 0.005239
K_430 X_NUC_6.L_CORE X_NUC_11.L_CORE 0.005146
K_431 X_NUC_6.L_CORE X_NUC_12.L_CORE 0.005192
K_432 X_NUC_6.L_CORE X_NUC_13.L_CORE 0.006327
K_433 X_NUC_6.L_CORE X_NUC_14.L_CORE 0.006421
K_434 X_NUC_6.L_CORE X_NUC_15.L_CORE 0.006424
K_435 X_NUC_6.L_CORE X_NUC_16.L_CORE 0.006261
K_436 X_NUC_6.L_CORE X_NUC_17.L_CORE 0.007977
K_437 X_NUC_6.L_CORE X_NUC_18.L_CORE 0.008004
K_438 X_NUC_6.L_CORE X_NUC_19.L_CORE 0.007767
K_439 X_NUC_6.L_CORE X_NUC_20.L_CORE 0.008035
K_440 X_NUC_6.L_CORE X_NUC_21.L_CORE 0.003903
K_441 X_NUC_6.L_CORE X_NUC_22.L_CORE 0.003973
K_442 X_NUC_6.L_CORE X_NUC_23.L_CORE 0.003928
K_443 X_NUC_6.L_CORE X_NUC_24.L_CORE 0.003917
K_444 X_NUC_6.L_CORE X_NUC_25.L_CORE 0.007772
K_445 X_NUC_6.L_CORE X_NUC_26.L_CORE 0.007672
K_446 X_NUC_6.L_CORE X_NUC_27.L_CORE 0.007674
K_447 X_NUC_6.L_CORE X_NUC_28.L_CORE 0.007499
K_448 X_NUC_6.L_CORE X_NUC_29.L_CORE 0.004253
K_449 X_NUC_6.L_CORE X_NUC_30.L_CORE 0.004306
K_450 X_NUC_6.L_CORE X_NUC_31.L_CORE 0.004223
K_451 X_NUC_6.L_CORE X_NUC_32.L_CORE 0.004279
K_452 X_NUC_6.L_CORE X_NUC_33.L_CORE 0.003873
K_453 X_NUC_6.L_CORE X_NUC_34.L_CORE 0.003919
K_454 X_NUC_6.L_CORE X_NUC_35.L_CORE 0.003893
K_455 X_NUC_6.L_CORE X_NUC_36.L_CORE 0.003849
K_456 X_NUC_6.L_CORE X_NUC_37.L_CORE 0.006071
K_457 X_NUC_6.L_CORE X_NUC_38.L_CORE 0.006006
K_458 X_NUC_6.L_CORE X_NUC_39.L_CORE 0.005904
K_459 X_NUC_6.L_CORE X_NUC_40.L_CORE 0.005965
K_460 X_NUC_6.L_CORE X_NUC_41.L_CORE 0.003307
K_461 X_NUC_6.L_CORE X_NUC_42.L_CORE 0.003351
K_462 X_NUC_6.L_CORE X_NUC_43.L_CORE 0.003305
K_463 X_NUC_6.L_CORE X_NUC_44.L_CORE 0.003314
K_464 X_NUC_6.L_CORE X_NUC_45.L_CORE 0.004313
K_465 X_NUC_6.L_CORE X_NUC_46.L_CORE 0.004319
K_466 X_NUC_6.L_CORE X_NUC_47.L_CORE 0.004296
K_467 X_NUC_6.L_CORE X_NUC_48.L_CORE 0.004241
K_468 X_NUC_6.L_CORE X_NUC_49.L_CORE 0.003983
K_469 X_NUC_6.L_CORE X_NUC_50.L_CORE 0.003999
K_470 X_NUC_6.L_CORE X_NUC_51.L_CORE 0.003927
K_471 X_NUC_6.L_CORE X_NUC_52.L_CORE 0.003972
K_472 X_NUC_6.L_CORE X_NUC_53.L_CORE 0.003131
K_473 X_NUC_6.L_CORE X_NUC_54.L_CORE 0.003164
K_474 X_NUC_6.L_CORE X_NUC_55.L_CORE 0.003131
K_475 X_NUC_6.L_CORE X_NUC_56.L_CORE 0.003119
K_476 X_NUC_6.L_CORE X_NUC_57.L_CORE 0.004246
K_477 X_NUC_6.L_CORE X_NUC_58.L_CORE 0.004228
K_478 X_NUC_6.L_CORE X_NUC_59.L_CORE 0.004184
K_479 X_NUC_6.L_CORE X_NUC_60.L_CORE 0.004174
K_480 X_NUC_6.L_CORE X_NUC_61.L_CORE 0.003143
K_481 X_NUC_6.L_CORE X_NUC_62.L_CORE 0.003169
K_482 X_NUC_6.L_CORE X_NUC_63.L_CORE 0.003122
K_483 X_NUC_6.L_CORE X_NUC_64.L_CORE 0.003137
K_484 X_NUC_6.L_CORE X_NUC_65.L_CORE 0.003250
K_485 X_NUC_6.L_CORE X_NUC_66.L_CORE 0.003267
K_486 X_NUC_6.L_CORE X_NUC_67.L_CORE 0.003237
K_487 X_NUC_6.L_CORE X_NUC_68.L_CORE 0.003218
K_488 X_NUC_6.L_CORE X_NUC_69.L_CORE 0.003455
K_489 X_NUC_6.L_CORE X_NUC_70.L_CORE 0.003460
K_490 X_NUC_6.L_CORE X_NUC_71.L_CORE 0.003412
K_491 X_NUC_6.L_CORE X_NUC_72.L_CORE 0.003423
K_492 X_NUC_6.L_CORE X_NUC_73.L_CORE 0.002986
K_493 X_NUC_6.L_CORE X_NUC_74.L_CORE 0.003005
K_494 X_NUC_6.L_CORE X_NUC_75.L_CORE 0.002969
K_495 X_NUC_6.L_CORE X_NUC_76.L_CORE 0.002968
K_496 X_NUC_6.L_CORE X_NUC_77.L_CORE 0.006060
K_497 X_NUC_6.L_CORE X_NUC_78.L_CORE 0.025808
K_498 X_NUC_6.L_CORE X_NUC_79.L_CORE 0.004176
K_499 X_NUC_6.L_CORE X_NUC_80.L_CORE 0.004894
K_500 X_NUC_6.L_CORE X_NUC_81.L_CORE 0.005546
K_501 X_NUC_6.L_CORE X_NUC_82.L_CORE 0.003167
K_502 X_NUC_6.L_CORE X_NUC_83.L_CORE 0.004875
K_503 X_NUC_6.L_CORE X_NUC_84.L_CORE 0.003301
K_504 X_NUC_6.L_CORE X_NUC_85.L_CORE 0.003053
K_505 X_NUC_6.L_CORE X_NUC_86.L_CORE 0.003694
K_506 X_NUC_6.L_CORE X_NUC_87.L_CORE 0.002739
K_507 X_NUC_6.L_CORE X_NUC_88.L_CORE 0.002962
K_508 X_NUC_7.L_CORE X_NUC_8.L_CORE 0.207973
K_509 X_NUC_7.L_CORE X_NUC_9.L_CORE 0.005209
K_510 X_NUC_7.L_CORE X_NUC_10.L_CORE 0.005334
K_511 X_NUC_7.L_CORE X_NUC_11.L_CORE 0.005239
K_512 X_NUC_7.L_CORE X_NUC_12.L_CORE 0.005286
K_513 X_NUC_7.L_CORE X_NUC_13.L_CORE 0.006321
K_514 X_NUC_7.L_CORE X_NUC_14.L_CORE 0.006412
K_515 X_NUC_7.L_CORE X_NUC_15.L_CORE 0.006421
K_516 X_NUC_7.L_CORE X_NUC_16.L_CORE 0.006256
K_517 X_NUC_7.L_CORE X_NUC_17.L_CORE 0.008228
K_518 X_NUC_7.L_CORE X_NUC_18.L_CORE 0.008251
K_519 X_NUC_7.L_CORE X_NUC_19.L_CORE 0.008004
K_520 X_NUC_7.L_CORE X_NUC_20.L_CORE 0.008291
K_521 X_NUC_7.L_CORE X_NUC_21.L_CORE 0.003947
K_522 X_NUC_7.L_CORE X_NUC_22.L_CORE 0.004019
K_523 X_NUC_7.L_CORE X_NUC_23.L_CORE 0.003973
K_524 X_NUC_7.L_CORE X_NUC_24.L_CORE 0.003962
K_525 X_NUC_7.L_CORE X_NUC_25.L_CORE 0.007765
K_526 X_NUC_7.L_CORE X_NUC_26.L_CORE 0.007661
K_527 X_NUC_7.L_CORE X_NUC_27.L_CORE 0.007672
K_528 X_NUC_7.L_CORE X_NUC_28.L_CORE 0.007493
K_529 X_NUC_7.L_CORE X_NUC_29.L_CORE 0.004337
K_530 X_NUC_7.L_CORE X_NUC_30.L_CORE 0.004393
K_531 X_NUC_7.L_CORE X_NUC_31.L_CORE 0.004306
K_532 X_NUC_7.L_CORE X_NUC_32.L_CORE 0.004365
K_533 X_NUC_7.L_CORE X_NUC_33.L_CORE 0.003898
K_534 X_NUC_7.L_CORE X_NUC_34.L_CORE 0.003945
K_535 X_NUC_7.L_CORE X_NUC_35.L_CORE 0.003919
K_536 X_NUC_7.L_CORE X_NUC_36.L_CORE 0.003874
K_537 X_NUC_7.L_CORE X_NUC_37.L_CORE 0.006179
K_538 X_NUC_7.L_CORE X_NUC_38.L_CORE 0.006107
K_539 X_NUC_7.L_CORE X_NUC_39.L_CORE 0.006006
K_540 X_NUC_7.L_CORE X_NUC_40.L_CORE 0.006067
K_541 X_NUC_7.L_CORE X_NUC_41.L_CORE 0.003354
K_542 X_NUC_7.L_CORE X_NUC_42.L_CORE 0.003399
K_543 X_NUC_7.L_CORE X_NUC_43.L_CORE 0.003351
K_544 X_NUC_7.L_CORE X_NUC_44.L_CORE 0.003361
K_545 X_NUC_7.L_CORE X_NUC_45.L_CORE 0.004335
K_546 X_NUC_7.L_CORE X_NUC_46.L_CORE 0.004341
K_547 X_NUC_7.L_CORE X_NUC_47.L_CORE 0.004319
K_548 X_NUC_7.L_CORE X_NUC_48.L_CORE 0.004262
K_549 X_NUC_7.L_CORE X_NUC_49.L_CORE 0.004057
K_550 X_NUC_7.L_CORE X_NUC_50.L_CORE 0.004073
K_551 X_NUC_7.L_CORE X_NUC_51.L_CORE 0.003999
K_552 X_NUC_7.L_CORE X_NUC_52.L_CORE 0.004045
K_553 X_NUC_7.L_CORE X_NUC_53.L_CORE 0.003163
K_554 X_NUC_7.L_CORE X_NUC_54.L_CORE 0.003197
K_555 X_NUC_7.L_CORE X_NUC_55.L_CORE 0.003164
K_556 X_NUC_7.L_CORE X_NUC_56.L_CORE 0.003150
K_557 X_NUC_7.L_CORE X_NUC_57.L_CORE 0.004292
K_558 X_NUC_7.L_CORE X_NUC_58.L_CORE 0.004273
K_559 X_NUC_7.L_CORE X_NUC_59.L_CORE 0.004228
K_560 X_NUC_7.L_CORE X_NUC_60.L_CORE 0.004217
K_561 X_NUC_7.L_CORE X_NUC_61.L_CORE 0.003190
K_562 X_NUC_7.L_CORE X_NUC_62.L_CORE 0.003217
K_563 X_NUC_7.L_CORE X_NUC_63.L_CORE 0.003169
K_564 X_NUC_7.L_CORE X_NUC_64.L_CORE 0.003184
K_565 X_NUC_7.L_CORE X_NUC_65.L_CORE 0.003280
K_566 X_NUC_7.L_CORE X_NUC_66.L_CORE 0.003297
K_567 X_NUC_7.L_CORE X_NUC_67.L_CORE 0.003267
K_568 X_NUC_7.L_CORE X_NUC_68.L_CORE 0.003247
K_569 X_NUC_7.L_CORE X_NUC_69.L_CORE 0.003503
K_570 X_NUC_7.L_CORE X_NUC_70.L_CORE 0.003508
K_571 X_NUC_7.L_CORE X_NUC_71.L_CORE 0.003460
K_572 X_NUC_7.L_CORE X_NUC_72.L_CORE 0.003471
K_573 X_NUC_7.L_CORE X_NUC_73.L_CORE 0.003023
K_574 X_NUC_7.L_CORE X_NUC_74.L_CORE 0.003043
K_575 X_NUC_7.L_CORE X_NUC_75.L_CORE 0.003005
K_576 X_NUC_7.L_CORE X_NUC_76.L_CORE 0.003004
K_577 X_NUC_7.L_CORE X_NUC_77.L_CORE 0.006076
K_578 X_NUC_7.L_CORE X_NUC_78.L_CORE 0.023977
K_579 X_NUC_7.L_CORE X_NUC_79.L_CORE 0.004239
K_580 X_NUC_7.L_CORE X_NUC_80.L_CORE 0.004885
K_581 X_NUC_7.L_CORE X_NUC_81.L_CORE 0.005657
K_582 X_NUC_7.L_CORE X_NUC_82.L_CORE 0.003199
K_583 X_NUC_7.L_CORE X_NUC_83.L_CORE 0.004886
K_584 X_NUC_7.L_CORE X_NUC_84.L_CORE 0.003354
K_585 X_NUC_7.L_CORE X_NUC_85.L_CORE 0.003075
K_586 X_NUC_7.L_CORE X_NUC_86.L_CORE 0.003739