* Applied Vacuum Engineering (AVE) - SPICE Netlist
* Element: Yttrium-89 (Z=39, A=89)
* Auto-generated topological mutual impedance array
* Nodes: 89



* -----------------------------------------------------------------
* NUCLEON (Baseline 6^3_2 Topological Defect)
* -----------------------------------------------------------------
.SUBCKT NUCLEON IN OUT
L_CORE IN OUT 1uH
C_CORE IN OUT 1pF
.ENDS NUCLEON



* -----------------------------------------------------------------
* MACROSCOPIC TOPOLOGY (Nucleon Array)
* -----------------------------------------------------------------
V_STIM NODE_1 0 AC 1 PULSE(0 100k 10n 1n 1n 50n 100n)

X_NUC_1 NODE_1 0 NUCLEON
X_NUC_2 NODE_2 0 NUCLEON
X_NUC_3 NODE_3 0 NUCLEON
X_NUC_4 NODE_4 0 NUCLEON
X_NUC_5 NODE_5 0 NUCLEON
X_NUC_6 NODE_6 0 NUCLEON
X_NUC_7 NODE_7 0 NUCLEON
X_NUC_8 NODE_8 0 NUCLEON
X_NUC_9 NODE_9 0 NUCLEON
X_NUC_10 NODE_10 0 NUCLEON
X_NUC_11 NODE_11 0 NUCLEON
X_NUC_12 NODE_12 0 NUCLEON
X_NUC_13 NODE_13 0 NUCLEON
X_NUC_14 NODE_14 0 NUCLEON
X_NUC_15 NODE_15 0 NUCLEON
X_NUC_16 NODE_16 0 NUCLEON
X_NUC_17 NODE_17 0 NUCLEON
X_NUC_18 NODE_18 0 NUCLEON
X_NUC_19 NODE_19 0 NUCLEON
X_NUC_20 NODE_20 0 NUCLEON
X_NUC_21 NODE_21 0 NUCLEON
X_NUC_22 NODE_22 0 NUCLEON
X_NUC_23 NODE_23 0 NUCLEON
X_NUC_24 NODE_24 0 NUCLEON
X_NUC_25 NODE_25 0 NUCLEON
X_NUC_26 NODE_26 0 NUCLEON
X_NUC_27 NODE_27 0 NUCLEON
X_NUC_28 NODE_28 0 NUCLEON
X_NUC_29 NODE_29 0 NUCLEON
X_NUC_30 NODE_30 0 NUCLEON
X_NUC_31 NODE_31 0 NUCLEON
X_NUC_32 NODE_32 0 NUCLEON
X_NUC_33 NODE_33 0 NUCLEON
X_NUC_34 NODE_34 0 NUCLEON
X_NUC_35 NODE_35 0 NUCLEON
X_NUC_36 NODE_36 0 NUCLEON
X_NUC_37 NODE_37 0 NUCLEON
X_NUC_38 NODE_38 0 NUCLEON
X_NUC_39 NODE_39 0 NUCLEON
X_NUC_40 NODE_40 0 NUCLEON
X_NUC_41 NODE_41 0 NUCLEON
X_NUC_42 NODE_42 0 NUCLEON
X_NUC_43 NODE_43 0 NUCLEON
X_NUC_44 NODE_44 0 NUCLEON
X_NUC_45 NODE_45 0 NUCLEON
X_NUC_46 NODE_46 0 NUCLEON
X_NUC_47 NODE_47 0 NUCLEON
X_NUC_48 NODE_48 0 NUCLEON
X_NUC_49 NODE_49 0 NUCLEON
X_NUC_50 NODE_50 0 NUCLEON
X_NUC_51 NODE_51 0 NUCLEON
X_NUC_52 NODE_52 0 NUCLEON
X_NUC_53 NODE_53 0 NUCLEON
X_NUC_54 NODE_54 0 NUCLEON
X_NUC_55 NODE_55 0 NUCLEON
X_NUC_56 NODE_56 0 NUCLEON
X_NUC_57 NODE_57 0 NUCLEON
X_NUC_58 NODE_58 0 NUCLEON
X_NUC_59 NODE_59 0 NUCLEON
X_NUC_60 NODE_60 0 NUCLEON
X_NUC_61 NODE_61 0 NUCLEON
X_NUC_62 NODE_62 0 NUCLEON
X_NUC_63 NODE_63 0 NUCLEON
X_NUC_64 NODE_64 0 NUCLEON
X_NUC_65 NODE_65 0 NUCLEON
X_NUC_66 NODE_66 0 NUCLEON
X_NUC_67 NODE_67 0 NUCLEON
X_NUC_68 NODE_68 0 NUCLEON
X_NUC_69 NODE_69 0 NUCLEON
X_NUC_70 NODE_70 0 NUCLEON
X_NUC_71 NODE_71 0 NUCLEON
X_NUC_72 NODE_72 0 NUCLEON
X_NUC_73 NODE_73 0 NUCLEON
X_NUC_74 NODE_74 0 NUCLEON
X_NUC_75 NODE_75 0 NUCLEON
X_NUC_76 NODE_76 0 NUCLEON
X_NUC_77 NODE_77 0 NUCLEON
X_NUC_78 NODE_78 0 NUCLEON
X_NUC_79 NODE_79 0 NUCLEON
X_NUC_80 NODE_80 0 NUCLEON
X_NUC_81 NODE_81 0 NUCLEON
X_NUC_82 NODE_82 0 NUCLEON
X_NUC_83 NODE_83 0 NUCLEON
X_NUC_84 NODE_84 0 NUCLEON
X_NUC_85 NODE_85 0 NUCLEON
X_NUC_86 NODE_86 0 NUCLEON
X_NUC_87 NODE_87 0 NUCLEON
X_NUC_88 NODE_88 0 NUCLEON
X_NUC_89 NODE_89 0 NUCLEON


* -----------------------------------------------------------------
* SPATIAL MUTUAL INDUCTANCE (K-FACTORS)
* -----------------------------------------------------------------
K_1 X_NUC_1.L_CORE X_NUC_2.L_CORE 0.207973
K_2 X_NUC_1.L_CORE X_NUC_3.L_CORE 0.207973
K_3 X_NUC_1.L_CORE X_NUC_4.L_CORE 0.207973
K_4 X_NUC_1.L_CORE X_NUC_5.L_CORE 0.007279
K_5 X_NUC_1.L_CORE X_NUC_6.L_CORE 0.007046
K_6 X_NUC_1.L_CORE X_NUC_7.L_CORE 0.007098
K_7 X_NUC_1.L_CORE X_NUC_8.L_CORE 0.007172
K_8 X_NUC_1.L_CORE X_NUC_9.L_CORE 0.007854
K_9 X_NUC_1.L_CORE X_NUC_10.L_CORE 0.007966
K_10 X_NUC_1.L_CORE X_NUC_11.L_CORE 0.007720
K_11 X_NUC_1.L_CORE X_NUC_12.L_CORE 0.007980
K_12 X_NUC_1.L_CORE X_NUC_13.L_CORE 0.008346
K_13 X_NUC_1.L_CORE X_NUC_14.L_CORE 0.008189
K_14 X_NUC_1.L_CORE X_NUC_15.L_CORE 0.008285
K_15 X_NUC_1.L_CORE X_NUC_16.L_CORE 0.008045
K_16 X_NUC_1.L_CORE X_NUC_17.L_CORE 0.004763
K_17 X_NUC_1.L_CORE X_NUC_18.L_CORE 0.004701
K_18 X_NUC_1.L_CORE X_NUC_19.L_CORE 0.004667
K_19 X_NUC_1.L_CORE X_NUC_20.L_CORE 0.004745
K_20 X_NUC_1.L_CORE X_NUC_21.L_CORE 0.007002
K_21 X_NUC_1.L_CORE X_NUC_22.L_CORE 0.007189
K_22 X_NUC_1.L_CORE X_NUC_23.L_CORE 0.006982
K_23 X_NUC_1.L_CORE X_NUC_24.L_CORE 0.006990
K_24 X_NUC_1.L_CORE X_NUC_25.L_CORE 0.004732
K_25 X_NUC_1.L_CORE X_NUC_26.L_CORE 0.004643
K_26 X_NUC_1.L_CORE X_NUC_27.L_CORE 0.004659
K_27 X_NUC_1.L_CORE X_NUC_28.L_CORE 0.004639
K_28 X_NUC_1.L_CORE X_NUC_29.L_CORE 0.004299
K_29 X_NUC_1.L_CORE X_NUC_30.L_CORE 0.004302
K_30 X_NUC_1.L_CORE X_NUC_31.L_CORE 0.004230
K_31 X_NUC_1.L_CORE X_NUC_32.L_CORE 0.004304
K_32 X_NUC_1.L_CORE X_NUC_33.L_CORE 0.005389
K_33 X_NUC_1.L_CORE X_NUC_34.L_CORE 0.005411
K_34 X_NUC_1.L_CORE X_NUC_35.L_CORE 0.005366
K_35 X_NUC_1.L_CORE X_NUC_36.L_CORE 0.005283
K_36 X_NUC_1.L_CORE X_NUC_37.L_CORE 0.003670
K_37 X_NUC_1.L_CORE X_NUC_38.L_CORE 0.003624
K_38 X_NUC_1.L_CORE X_NUC_39.L_CORE 0.003609
K_39 X_NUC_1.L_CORE X_NUC_40.L_CORE 0.003633
K_40 X_NUC_1.L_CORE X_NUC_41.L_CORE 0.004254
K_41 X_NUC_1.L_CORE X_NUC_42.L_CORE 0.004298
K_42 X_NUC_1.L_CORE X_NUC_43.L_CORE 0.004211
K_43 X_NUC_1.L_CORE X_NUC_44.L_CORE 0.004246
K_44 X_NUC_1.L_CORE X_NUC_45.L_CORE 0.003973
K_45 X_NUC_1.L_CORE X_NUC_46.L_CORE 0.003938
K_46 X_NUC_1.L_CORE X_NUC_47.L_CORE 0.003931
K_47 X_NUC_1.L_CORE X_NUC_48.L_CORE 0.003899
K_48 X_NUC_1.L_CORE X_NUC_49.L_CORE 0.003343
K_49 X_NUC_1.L_CORE X_NUC_50.L_CORE 0.003329
K_50 X_NUC_1.L_CORE X_NUC_51.L_CORE 0.003292
K_51 X_NUC_1.L_CORE X_NUC_52.L_CORE 0.003326
K_52 X_NUC_1.L_CORE X_NUC_53.L_CORE 0.003956
K_53 X_NUC_1.L_CORE X_NUC_54.L_CORE 0.003983
K_54 X_NUC_1.L_CORE X_NUC_55.L_CORE 0.003927
K_55 X_NUC_1.L_CORE X_NUC_56.L_CORE 0.003915
K_56 X_NUC_1.L_CORE X_NUC_57.L_CORE 0.003248
K_57 X_NUC_1.L_CORE X_NUC_58.L_CORE 0.003218
K_58 X_NUC_1.L_CORE X_NUC_59.L_CORE 0.003203
K_59 X_NUC_1.L_CORE X_NUC_60.L_CORE 0.003205
K_60 X_NUC_1.L_CORE X_NUC_61.L_CORE 0.003272
K_61 X_NUC_1.L_CORE X_NUC_62.L_CORE 0.003279
K_62 X_NUC_1.L_CORE X_NUC_63.L_CORE 0.003232
K_63 X_NUC_1.L_CORE X_NUC_64.L_CORE 0.003256
K_64 X_NUC_1.L_CORE X_NUC_65.L_CORE 0.003375
K_65 X_NUC_1.L_CORE X_NUC_66.L_CORE 0.003369
K_66 X_NUC_1.L_CORE X_NUC_67.L_CORE 0.003342
K_67 X_NUC_1.L_CORE X_NUC_68.L_CORE 0.003329
K_68 X_NUC_1.L_CORE X_NUC_69.L_CORE 0.002977
K_69 X_NUC_1.L_CORE X_NUC_70.L_CORE 0.002963
K_70 X_NUC_1.L_CORE X_NUC_71.L_CORE 0.002937
K_71 X_NUC_1.L_CORE X_NUC_72.L_CORE 0.002949
K_72 X_NUC_1.L_CORE X_NUC_73.L_CORE 0.003093
K_73 X_NUC_1.L_CORE X_NUC_74.L_CORE 0.003095
K_74 X_NUC_1.L_CORE X_NUC_75.L_CORE 0.003059
K_75 X_NUC_1.L_CORE X_NUC_76.L_CORE 0.003065
K_76 X_NUC_1.L_CORE X_NUC_77.L_CORE 0.032506
K_77 X_NUC_1.L_CORE X_NUC_78.L_CORE 0.005743
K_78 X_NUC_1.L_CORE X_NUC_79.L_CORE 0.006042
K_79 X_NUC_1.L_CORE X_NUC_80.L_CORE 0.005992
K_80 X_NUC_1.L_CORE X_NUC_81.L_CORE 0.003774
K_81 X_NUC_1.L_CORE X_NUC_82.L_CORE 0.004977
K_82 X_NUC_1.L_CORE X_NUC_83.L_CORE 0.003633
K_83 X_NUC_1.L_CORE X_NUC_84.L_CORE 0.003355
K_84 X_NUC_1.L_CORE X_NUC_85.L_CORE 0.003793
K_85 X_NUC_1.L_CORE X_NUC_86.L_CORE 0.002914
K_86 X_NUC_1.L_CORE X_NUC_87.L_CORE 0.003143
K_87 X_NUC_1.L_CORE X_NUC_88.L_CORE 0.002945
K_88 X_NUC_1.L_CORE X_NUC_89.L_CORE 0.002708
K_89 X_NUC_2.L_CORE X_NUC_3.L_CORE 0.207973
K_90 X_NUC_2.L_CORE X_NUC_4.L_CORE 0.207973
K_91 X_NUC_2.L_CORE X_NUC_5.L_CORE 0.007526
K_92 X_NUC_2.L_CORE X_NUC_6.L_CORE 0.007279
K_93 X_NUC_2.L_CORE X_NUC_7.L_CORE 0.007332
K_94 X_NUC_2.L_CORE X_NUC_8.L_CORE 0.007414
K_95 X_NUC_2.L_CORE X_NUC_9.L_CORE 0.007736
K_96 X_NUC_2.L_CORE X_NUC_10.L_CORE 0.007854
K_97 X_NUC_2.L_CORE X_NUC_11.L_CORE 0.007613
K_98 X_NUC_2.L_CORE X_NUC_12.L_CORE 0.007862
K_99 X_NUC_2.L_CORE X_NUC_13.L_CORE 0.008498
K_100 X_NUC_2.L_CORE X_NUC_14.L_CORE 0.008346
K_101 X_NUC_2.L_CORE X_NUC_15.L_CORE 0.008441
K_102 X_NUC_2.L_CORE X_NUC_16.L_CORE 0.008187
K_103 X_NUC_2.L_CORE X_NUC_17.L_CORE 0.004826
K_104 X_NUC_2.L_CORE X_NUC_18.L_CORE 0.004763
K_105 X_NUC_2.L_CORE X_NUC_19.L_CORE 0.004727
K_106 X_NUC_2.L_CORE X_NUC_20.L_CORE 0.004808
K_107 X_NUC_2.L_CORE X_NUC_21.L_CORE 0.006821
K_108 X_NUC_2.L_CORE X_NUC_22.L_CORE 0.007002
K_109 X_NUC_2.L_CORE X_NUC_23.L_CORE 0.006806
K_110 X_NUC_2.L_CORE X_NUC_24.L_CORE 0.006814
K_111 X_NUC_2.L_CORE X_NUC_25.L_CORE 0.004824
K_112 X_NUC_2.L_CORE X_NUC_26.L_CORE 0.004732
K_113 X_NUC_2.L_CORE X_NUC_27.L_CORE 0.004748
K_114 X_NUC_2.L_CORE X_NUC_28.L_CORE 0.004727
K_115 X_NUC_2.L_CORE X_NUC_29.L_CORE 0.004293
K_116 X_NUC_2.L_CORE X_NUC_30.L_CORE 0.004299
K_117 X_NUC_2.L_CORE X_NUC_31.L_CORE 0.004226
K_118 X_NUC_2.L_CORE X_NUC_32.L_CORE 0.004299
K_119 X_NUC_2.L_CORE X_NUC_33.L_CORE 0.005362
K_120 X_NUC_2.L_CORE X_NUC_34.L_CORE 0.005389
K_121 X_NUC_2.L_CORE X_NUC_35.L_CORE 0.005342
K_122 X_NUC_2.L_CORE X_NUC_36.L_CORE 0.005260
K_123 X_NUC_2.L_CORE X_NUC_37.L_CORE 0.003717
K_124 X_NUC_2.L_CORE X_NUC_38.L_CORE 0.003670
K_125 X_NUC_2.L_CORE X_NUC_39.L_CORE 0.003654
K_126 X_NUC_2.L_CORE X_NUC_40.L_CORE 0.003678
K_127 X_NUC_2.L_CORE X_NUC_41.L_CORE 0.004209
K_128 X_NUC_2.L_CORE X_NUC_42.L_CORE 0.004254
K_129 X_NUC_2.L_CORE X_NUC_43.L_CORE 0.004169
K_130 X_NUC_2.L_CORE X_NUC_44.L_CORE 0.004203
K_131 X_NUC_2.L_CORE X_NUC_45.L_CORE 0.004008
K_132 X_NUC_2.L_CORE X_NUC_46.L_CORE 0.003973
K_133 X_NUC_2.L_CORE X_NUC_47.L_CORE 0.003965
K_134 X_NUC_2.L_CORE X_NUC_48.L_CORE 0.003933
K_135 X_NUC_2.L_CORE X_NUC_49.L_CORE 0.003357
K_136 X_NUC_2.L_CORE X_NUC_50.L_CORE 0.003343
K_137 X_NUC_2.L_CORE X_NUC_51.L_CORE 0.003306
K_138 X_NUC_2.L_CORE X_NUC_52.L_CORE 0.003340
K_139 X_NUC_2.L_CORE X_NUC_53.L_CORE 0.003929
K_140 X_NUC_2.L_CORE X_NUC_54.L_CORE 0.003956
K_141 X_NUC_2.L_CORE X_NUC_55.L_CORE 0.003901
K_142 X_NUC_2.L_CORE X_NUC_56.L_CORE 0.003889
K_143 X_NUC_2.L_CORE X_NUC_57.L_CORE 0.003277
K_144 X_NUC_2.L_CORE X_NUC_58.L_CORE 0.003248
K_145 X_NUC_2.L_CORE X_NUC_59.L_CORE 0.003232
K_146 X_NUC_2.L_CORE X_NUC_60.L_CORE 0.003234
K_147 X_NUC_2.L_CORE X_NUC_61.L_CORE 0.003265
K_148 X_NUC_2.L_CORE X_NUC_62.L_CORE 0.003272
K_149 X_NUC_2.L_CORE X_NUC_63.L_CORE 0.003226
K_150 X_NUC_2.L_CORE X_NUC_64.L_CORE 0.003249
K_151 X_NUC_2.L_CORE X_NUC_65.L_CORE 0.003380
K_152 X_NUC_2.L_CORE X_NUC_66.L_CORE 0.003375
K_153 X_NUC_2.L_CORE X_NUC_67.L_CORE 0.003347
K_154 X_NUC_2.L_CORE X_NUC_68.L_CORE 0.003334
K_155 X_NUC_2.L_CORE X_NUC_69.L_CORE 0.002990
K_156 X_NUC_2.L_CORE X_NUC_70.L_CORE 0.002977
K_157 X_NUC_2.L_CORE X_NUC_71.L_CORE 0.002950
K_158 X_NUC_2.L_CORE X_NUC_72.L_CORE 0.002962
K_159 X_NUC_2.L_CORE X_NUC_73.L_CORE 0.003090
K_160 X_NUC_2.L_CORE X_NUC_74.L_CORE 0.003093
K_161 X_NUC_2.L_CORE X_NUC_75.L_CORE 0.003057
K_162 X_NUC_2.L_CORE X_NUC_76.L_CORE 0.003062
K_163 X_NUC_2.L_CORE X_NUC_77.L_CORE 0.030143
K_164 X_NUC_2.L_CORE X_NUC_78.L_CORE 0.005901
K_165 X_NUC_2.L_CORE X_NUC_79.L_CORE 0.005957
K_166 X_NUC_2.L_CORE X_NUC_80.L_CORE 0.006057
K_167 X_NUC_2.L_CORE X_NUC_81.L_CORE 0.003813
K_168 X_NUC_2.L_CORE X_NUC_82.L_CORE 0.004888
K_169 X_NUC_2.L_CORE X_NUC_83.L_CORE 0.003683
K_170 X_NUC_2.L_CORE X_NUC_84.L_CORE 0.003351
K_171 X_NUC_2.L_CORE X_NUC_85.L_CORE 0.003782
K_172 X_NUC_2.L_CORE X_NUC_86.L_CORE 0.002939
K_173 X_NUC_2.L_CORE X_NUC_87.L_CORE 0.003127
K_174 X_NUC_2.L_CORE X_NUC_88.L_CORE 0.002957
K_175 X_NUC_2.L_CORE X_NUC_89.L_CORE 0.002713
K_176 X_NUC_3.L_CORE X_NUC_4.L_CORE 0.207973
K_177 X_NUC_3.L_CORE X_NUC_5.L_CORE 0.007464
K_178 X_NUC_3.L_CORE X_NUC_6.L_CORE 0.007217
K_179 X_NUC_3.L_CORE X_NUC_7.L_CORE 0.007279
K_180 X_NUC_3.L_CORE X_NUC_8.L_CORE 0.007354
K_181 X_NUC_3.L_CORE X_NUC_9.L_CORE 0.007983
K_182 X_NUC_3.L_CORE X_NUC_10.L_CORE 0.008106
K_183 X_NUC_3.L_CORE X_NUC_11.L_CORE 0.007854
K_184 X_NUC_3.L_CORE X_NUC_12.L_CORE 0.008122
K_185 X_NUC_3.L_CORE X_NUC_13.L_CORE 0.008394
K_186 X_NUC_3.L_CORE X_NUC_14.L_CORE 0.008241
K_187 X_NUC_3.L_CORE X_NUC_15.L_CORE 0.008346
K_188 X_NUC_3.L_CORE X_NUC_16.L_CORE 0.008094
K_189 X_NUC_3.L_CORE X_NUC_17.L_CORE 0.004863
K_190 X_NUC_3.L_CORE X_NUC_18.L_CORE 0.004798
K_191 X_NUC_3.L_CORE X_NUC_19.L_CORE 0.004763
K_192 X_NUC_3.L_CORE X_NUC_20.L_CORE 0.004845
K_193 X_NUC_3.L_CORE X_NUC_21.L_CORE 0.007014
K_194 X_NUC_3.L_CORE X_NUC_22.L_CORE 0.007207
K_195 X_NUC_3.L_CORE X_NUC_23.L_CORE 0.007002
K_196 X_NUC_3.L_CORE X_NUC_24.L_CORE 0.007006
K_197 X_NUC_3.L_CORE X_NUC_25.L_CORE 0.004805
K_198 X_NUC_3.L_CORE X_NUC_26.L_CORE 0.004713
K_199 X_NUC_3.L_CORE X_NUC_27.L_CORE 0.004732
K_200 X_NUC_3.L_CORE X_NUC_28.L_CORE 0.004709
K_201 X_NUC_3.L_CORE X_NUC_29.L_CORE 0.004368
K_202 X_NUC_3.L_CORE X_NUC_30.L_CORE 0.004373
K_203 X_NUC_3.L_CORE X_NUC_31.L_CORE 0.004299
K_204 X_NUC_3.L_CORE X_NUC_32.L_CORE 0.004374
K_205 X_NUC_3.L_CORE X_NUC_33.L_CORE 0.005407
K_206 X_NUC_3.L_CORE X_NUC_34.L_CORE 0.005432
K_207 X_NUC_3.L_CORE X_NUC_35.L_CORE 0.005389
K_208 X_NUC_3.L_CORE X_NUC_36.L_CORE 0.005303
K_209 X_NUC_3.L_CORE X_NUC_37.L_CORE 0.003734
K_210 X_NUC_3.L_CORE X_NUC_38.L_CORE 0.003686
K_211 X_NUC_3.L_CORE X_NUC_39.L_CORE 0.003670
K_212 X_NUC_3.L_CORE X_NUC_40.L_CORE 0.003695
K_213 X_NUC_3.L_CORE X_NUC_41.L_CORE 0.004296
K_214 X_NUC_3.L_CORE X_NUC_42.L_CORE 0.004342
K_215 X_NUC_3.L_CORE X_NUC_43.L_CORE 0.004254
K_216 X_NUC_3.L_CORE X_NUC_44.L_CORE 0.004289
K_217 X_NUC_3.L_CORE X_NUC_45.L_CORE 0.004016
K_218 X_NUC_3.L_CORE X_NUC_46.L_CORE 0.003981
K_219 X_NUC_3.L_CORE X_NUC_47.L_CORE 0.003973
K_220 X_NUC_3.L_CORE X_NUC_48.L_CORE 0.003940
K_221 X_NUC_3.L_CORE X_NUC_49.L_CORE 0.003396
K_222 X_NUC_3.L_CORE X_NUC_50.L_CORE 0.003381
K_223 X_NUC_3.L_CORE X_NUC_51.L_CORE 0.003343
K_224 X_NUC_3.L_CORE X_NUC_52.L_CORE 0.003378
K_225 X_NUC_3.L_CORE X_NUC_53.L_CORE 0.003985
K_226 X_NUC_3.L_CORE X_NUC_54.L_CORE 0.004013
K_227 X_NUC_3.L_CORE X_NUC_55.L_CORE 0.003956
K_228 X_NUC_3.L_CORE X_NUC_56.L_CORE 0.003943
K_229 X_NUC_3.L_CORE X_NUC_57.L_CORE 0.003293
K_230 X_NUC_3.L_CORE X_NUC_58.L_CORE 0.003263
K_231 X_NUC_3.L_CORE X_NUC_59.L_CORE 0.003248
K_232 X_NUC_3.L_CORE X_NUC_60.L_CORE 0.003250
K_233 X_NUC_3.L_CORE X_NUC_61.L_CORE 0.003313
K_234 X_NUC_3.L_CORE X_NUC_62.L_CORE 0.003320
K_235 X_NUC_3.L_CORE X_NUC_63.L_CORE 0.003272
K_236 X_NUC_3.L_CORE X_NUC_64.L_CORE 0.003296
K_237 X_NUC_3.L_CORE X_NUC_65.L_CORE 0.003408
K_238 X_NUC_3.L_CORE X_NUC_66.L_CORE 0.003403
K_239 X_NUC_3.L_CORE X_NUC_67.L_CORE 0.003375
K_240 X_NUC_3.L_CORE X_NUC_68.L_CORE 0.003361
K_241 X_NUC_3.L_CORE X_NUC_69.L_CORE 0.003017
K_242 X_NUC_3.L_CORE X_NUC_70.L_CORE 0.003004
K_243 X_NUC_3.L_CORE X_NUC_71.L_CORE 0.002977
K_244 X_NUC_3.L_CORE X_NUC_72.L_CORE 0.002989
K_245 X_NUC_3.L_CORE X_NUC_73.L_CORE 0.003127
K_246 X_NUC_3.L_CORE X_NUC_74.L_CORE 0.003129
K_247 X_NUC_3.L_CORE X_NUC_75.L_CORE 0.003093
K_248 X_NUC_3.L_CORE X_NUC_76.L_CORE 0.003098
K_249 X_NUC_3.L_CORE X_NUC_77.L_CORE 0.028119
K_250 X_NUC_3.L_CORE X_NUC_78.L_CORE 0.005846
K_251 X_NUC_3.L_CORE X_NUC_79.L_CORE 0.006102
K_252 X_NUC_3.L_CORE X_NUC_80.L_CORE 0.006003
K_253 X_NUC_3.L_CORE X_NUC_81.L_CORE 0.003838
K_254 X_NUC_3.L_CORE X_NUC_82.L_CORE 0.004984
K_255 X_NUC_3.L_CORE X_NUC_83.L_CORE 0.003677
K_256 X_NUC_3.L_CORE X_NUC_84.L_CORE 0.003399
K_257 X_NUC_3.L_CORE X_NUC_85.L_CORE 0.003811
K_258 X_NUC_3.L_CORE X_NUC_86.L_CORE 0.002955
K_259 X_NUC_3.L_CORE X_NUC_87.L_CORE 0.003172
K_260 X_NUC_3.L_CORE X_NUC_88.L_CORE 0.002974
K_261 X_NUC_3.L_CORE X_NUC_89.L_CORE 0.002740
K_262 X_NUC_4.L_CORE X_NUC_5.L_CORE 0.007380
K_263 X_NUC_4.L_CORE X_NUC_6.L_CORE 0.007142
K_264 X_NUC_4.L_CORE X_NUC_7.L_CORE 0.007197
K_265 X_NUC_4.L_CORE X_NUC_8.L_CORE 0.007279
K_266 X_NUC_4.L_CORE X_NUC_9.L_CORE 0.007723
K_267 X_NUC_4.L_CORE X_NUC_10.L_CORE 0.007834
K_268 X_NUC_4.L_CORE X_NUC_11.L_CORE 0.007601
K_269 X_NUC_4.L_CORE X_NUC_12.L_CORE 0.007854
K_270 X_NUC_4.L_CORE X_NUC_13.L_CORE 0.008668
K_271 X_NUC_4.L_CORE X_NUC_14.L_CORE 0.008500
K_272 X_NUC_4.L_CORE X_NUC_15.L_CORE 0.008607
K_273 X_NUC_4.L_CORE X_NUC_16.L_CORE 0.008346
K_274 X_NUC_4.L_CORE X_NUC_17.L_CORE 0.004779
K_275 X_NUC_4.L_CORE X_NUC_18.L_CORE 0.004717
K_276 X_NUC_4.L_CORE X_NUC_19.L_CORE 0.004683
K_277 X_NUC_4.L_CORE X_NUC_20.L_CORE 0.004763
K_278 X_NUC_4.L_CORE X_NUC_21.L_CORE 0.007006
K_279 X_NUC_4.L_CORE X_NUC_22.L_CORE 0.007198
K_280 X_NUC_4.L_CORE X_NUC_23.L_CORE 0.006990
K_281 X_NUC_4.L_CORE X_NUC_24.L_CORE 0.007002
K_282 X_NUC_4.L_CORE X_NUC_25.L_CORE 0.004828
K_283 X_NUC_4.L_CORE X_NUC_26.L_CORE 0.004735
K_284 X_NUC_4.L_CORE X_NUC_27.L_CORE 0.004752
K_285 X_NUC_4.L_CORE X_NUC_28.L_CORE 0.004732
K_286 X_NUC_4.L_CORE X_NUC_29.L_CORE 0.004292
K_287 X_NUC_4.L_CORE X_NUC_30.L_CORE 0.004296
K_288 X_NUC_4.L_CORE X_NUC_31.L_CORE 0.004225
K_289 X_NUC_4.L_CORE X_NUC_32.L_CORE 0.004299
K_290 X_NUC_4.L_CORE X_NUC_33.L_CORE 0.005496
K_291 X_NUC_4.L_CORE X_NUC_34.L_CORE 0.005523
K_292 X_NUC_4.L_CORE X_NUC_35.L_CORE 0.005475
K_293 X_NUC_4.L_CORE X_NUC_36.L_CORE 0.005389
K_294 X_NUC_4.L_CORE X_NUC_37.L_CORE 0.003708
K_295 X_NUC_4.L_CORE X_NUC_38.L_CORE 0.003661
K_296 X_NUC_4.L_CORE X_NUC_39.L_CORE 0.003645
K_297 X_NUC_4.L_CORE X_NUC_40.L_CORE 0.003670
K_298 X_NUC_4.L_CORE X_NUC_41.L_CORE 0.004260
K_299 X_NUC_4.L_CORE X_NUC_42.L_CORE 0.004305
K_300 X_NUC_4.L_CORE X_NUC_43.L_CORE 0.004218
K_301 X_NUC_4.L_CORE X_NUC_44.L_CORE 0.004254
K_302 X_NUC_4.L_CORE X_NUC_45.L_CORE 0.004050
K_303 X_NUC_4.L_CORE X_NUC_46.L_CORE 0.004014
K_304 X_NUC_4.L_CORE X_NUC_47.L_CORE 0.004006
K_305 X_NUC_4.L_CORE X_NUC_48.L_CORE 0.003973
K_306 X_NUC_4.L_CORE X_NUC_49.L_CORE 0.003360
K_307 X_NUC_4.L_CORE X_NUC_50.L_CORE 0.003345
K_308 X_NUC_4.L_CORE X_NUC_51.L_CORE 0.003309
K_309 X_NUC_4.L_CORE X_NUC_52.L_CORE 0.003343
K_310 X_NUC_4.L_CORE X_NUC_53.L_CORE 0.003998
K_311 X_NUC_4.L_CORE X_NUC_54.L_CORE 0.004026
K_312 X_NUC_4.L_CORE X_NUC_55.L_CORE 0.003969
K_313 X_NUC_4.L_CORE X_NUC_56.L_CORE 0.003956
K_314 X_NUC_4.L_CORE X_NUC_57.L_CORE 0.003291
K_315 X_NUC_4.L_CORE X_NUC_58.L_CORE 0.003260
K_316 X_NUC_4.L_CORE X_NUC_59.L_CORE 0.003245
K_317 X_NUC_4.L_CORE X_NUC_60.L_CORE 0.003248
K_318 X_NUC_4.L_CORE X_NUC_61.L_CORE 0.003288
K_319 X_NUC_4.L_CORE X_NUC_62.L_CORE 0.003296
K_320 X_NUC_4.L_CORE X_NUC_63.L_CORE 0.003248
K_321 X_NUC_4.L_CORE X_NUC_64.L_CORE 0.003272
K_322 X_NUC_4.L_CORE X_NUC_65.L_CORE 0.003423
K_323 X_NUC_4.L_CORE X_NUC_66.L_CORE 0.003417
K_324 X_NUC_4.L_CORE X_NUC_67.L_CORE 0.003389
K_325 X_NUC_4.L_CORE X_NUC_68.L_CORE 0.003375
K_326 X_NUC_4.L_CORE X_NUC_69.L_CORE 0.003004
K_327 X_NUC_4.L_CORE X_NUC_70.L_CORE 0.002991
K_328 X_NUC_4.L_CORE X_NUC_71.L_CORE 0.002964
K_329 X_NUC_4.L_CORE X_NUC_72.L_CORE 0.002977
K_330 X_NUC_4.L_CORE X_NUC_73.L_CORE 0.003121
K_331 X_NUC_4.L_CORE X_NUC_74.L_CORE 0.003124
K_332 X_NUC_4.L_CORE X_NUC_75.L_CORE 0.003087
K_333 X_NUC_4.L_CORE X_NUC_76.L_CORE 0.003093
K_334 X_NUC_4.L_CORE X_NUC_77.L_CORE 0.030008
K_335 X_NUC_4.L_CORE X_NUC_78.L_CORE 0.005804
K_336 X_NUC_4.L_CORE X_NUC_79.L_CORE 0.005955
K_337 X_NUC_4.L_CORE X_NUC_80.L_CORE 0.006151
K_338 X_NUC_4.L_CORE X_NUC_81.L_CORE 0.003786
K_339 X_NUC_4.L_CORE X_NUC_82.L_CORE 0.004987
K_340 X_NUC_4.L_CORE X_NUC_83.L_CORE 0.003692
K_341 X_NUC_4.L_CORE X_NUC_84.L_CORE 0.003357
K_342 X_NUC_4.L_CORE X_NUC_85.L_CORE 0.003848
K_343 X_NUC_4.L_CORE X_NUC_86.L_CORE 0.002942
K_344 X_NUC_4.L_CORE X_NUC_87.L_CORE 0.003158
K_345 X_NUC_4.L_CORE X_NUC_88.L_CORE 0.002984
K_346 X_NUC_4.L_CORE X_NUC_89.L_CORE 0.002729
K_347 X_NUC_5.L_CORE X_NUC_6.L_CORE 0.207973
K_348 X_NUC_5.L_CORE X_NUC_7.L_CORE 0.207973
K_349 X_NUC_5.L_CORE X_NUC_8.L_CORE 0.207973
K_350 X_NUC_5.L_CORE X_NUC_9.L_CORE 0.005189
K_351 X_NUC_5.L_CORE X_NUC_10.L_CORE 0.005312
K_352 X_NUC_5.L_CORE X_NUC_11.L_CORE 0.005216
K_353 X_NUC_5.L_CORE X_NUC_12.L_CORE 0.005264
K_354 X_NUC_5.L_CORE X_NUC_13.L_CORE 0.006360
K_355 X_NUC_5.L_CORE X_NUC_14.L_CORE 0.006451
K_356 X_NUC_5.L_CORE X_NUC_15.L_CORE 0.006457
K_357 X_NUC_5.L_CORE X_NUC_16.L_CORE 0.006290
K_358 X_NUC_5.L_CORE X_NUC_17.L_CORE 0.007928
K_359 X_NUC_5.L_CORE X_NUC_18.L_CORE 0.007943
K_360 X_NUC_5.L_CORE X_NUC_19.L_CORE 0.007714
K_361 X_NUC_5.L_CORE X_NUC_20.L_CORE 0.007979
K_362 X_NUC_5.L_CORE X_NUC_21.L_CORE 0.003936
K_363 X_NUC_5.L_CORE X_NUC_22.L_CORE 0.004007
K_364 X_NUC_5.L_CORE X_NUC_23.L_CORE 0.003961
K_365 X_NUC_5.L_CORE X_NUC_24.L_CORE 0.003950
K_366 X_NUC_5.L_CORE X_NUC_25.L_CORE 0.007599
K_367 X_NUC_5.L_CORE X_NUC_26.L_CORE 0.007495
K_368 X_NUC_5.L_CORE X_NUC_27.L_CORE 0.007501
K_369 X_NUC_5.L_CORE X_NUC_28.L_CORE 0.007336
K_370 X_NUC_5.L_CORE X_NUC_29.L_CORE 0.004265
K_371 X_NUC_5.L_CORE X_NUC_30.L_CORE 0.004318
K_372 X_NUC_5.L_CORE X_NUC_31.L_CORE 0.004234
K_373 X_NUC_5.L_CORE X_NUC_32.L_CORE 0.004291
K_374 X_NUC_5.L_CORE X_NUC_33.L_CORE 0.003882
K_375 X_NUC_5.L_CORE X_NUC_34.L_CORE 0.003928
K_376 X_NUC_5.L_CORE X_NUC_35.L_CORE 0.003901
K_377 X_NUC_5.L_CORE X_NUC_36.L_CORE 0.003857
K_378 X_NUC_5.L_CORE X_NUC_37.L_CORE 0.005948
K_379 X_NUC_5.L_CORE X_NUC_38.L_CORE 0.005881
K_380 X_NUC_5.L_CORE X_NUC_39.L_CORE 0.005787
K_381 X_NUC_5.L_CORE X_NUC_40.L_CORE 0.005845
K_382 X_NUC_5.L_CORE X_NUC_41.L_CORE 0.003319
K_383 X_NUC_5.L_CORE X_NUC_42.L_CORE 0.003364
K_384 X_NUC_5.L_CORE X_NUC_43.L_CORE 0.003316
K_385 X_NUC_5.L_CORE X_NUC_44.L_CORE 0.003326
K_386 X_NUC_5.L_CORE X_NUC_45.L_CORE 0.004278
K_387 X_NUC_5.L_CORE X_NUC_46.L_CORE 0.004283
K_388 X_NUC_5.L_CORE X_NUC_47.L_CORE 0.004261
K_389 X_NUC_5.L_CORE X_NUC_48.L_CORE 0.004206
K_390 X_NUC_5.L_CORE X_NUC_49.L_CORE 0.003961
K_391 X_NUC_5.L_CORE X_NUC_50.L_CORE 0.003975
K_392 X_NUC_5.L_CORE X_NUC_51.L_CORE 0.003905
K_393 X_NUC_5.L_CORE X_NUC_52.L_CORE 0.003949
K_394 X_NUC_5.L_CORE X_NUC_53.L_CORE 0.003134
K_395 X_NUC_5.L_CORE X_NUC_54.L_CORE 0.003166
K_396 X_NUC_5.L_CORE X_NUC_55.L_CORE 0.003134
K_397 X_NUC_5.L_CORE X_NUC_56.L_CORE 0.003121
K_398 X_NUC_5.L_CORE X_NUC_57.L_CORE 0.004188
K_399 X_NUC_5.L_CORE X_NUC_58.L_CORE 0.004169
K_400 X_NUC_5.L_CORE X_NUC_59.L_CORE 0.004127
K_401 X_NUC_5.L_CORE X_NUC_60.L_CORE 0.004117
K_402 X_NUC_5.L_CORE X_NUC_61.L_CORE 0.003138
K_403 X_NUC_5.L_CORE X_NUC_62.L_CORE 0.003164
K_404 X_NUC_5.L_CORE X_NUC_63.L_CORE 0.003117
K_405 X_NUC_5.L_CORE X_NUC_64.L_CORE 0.003132
K_406 X_NUC_5.L_CORE X_NUC_65.L_CORE 0.003236
K_407 X_NUC_5.L_CORE X_NUC_66.L_CORE 0.003252
K_408 X_NUC_5.L_CORE X_NUC_67.L_CORE 0.003223
K_409 X_NUC_5.L_CORE X_NUC_68.L_CORE 0.003204
K_410 X_NUC_5.L_CORE X_NUC_69.L_CORE 0.003427
K_411 X_NUC_5.L_CORE X_NUC_70.L_CORE 0.003431
K_412 X_NUC_5.L_CORE X_NUC_71.L_CORE 0.003385
K_413 X_NUC_5.L_CORE X_NUC_72.L_CORE 0.003396
K_414 X_NUC_5.L_CORE X_NUC_73.L_CORE 0.002977
K_415 X_NUC_5.L_CORE X_NUC_74.L_CORE 0.002995
K_416 X_NUC_5.L_CORE X_NUC_75.L_CORE 0.002959
K_417 X_NUC_5.L_CORE X_NUC_76.L_CORE 0.002958
K_418 X_NUC_5.L_CORE X_NUC_77.L_CORE 0.006261
K_419 X_NUC_5.L_CORE X_NUC_78.L_CORE 0.025021
K_420 X_NUC_5.L_CORE X_NUC_79.L_CORE 0.004312
K_421 X_NUC_5.L_CORE X_NUC_80.L_CORE 0.005044
K_422 X_NUC_5.L_CORE X_NUC_81.L_CORE 0.005745
K_423 X_NUC_5.L_CORE X_NUC_82.L_CORE 0.003256
K_424 X_NUC_5.L_CORE X_NUC_83.L_CORE 0.005084
K_425 X_NUC_5.L_CORE X_NUC_84.L_CORE 0.003399
K_426 X_NUC_5.L_CORE X_NUC_85.L_CORE 0.003131
K_427 X_NUC_5.L_CORE X_NUC_86.L_CORE 0.003904
K_428 X_NUC_5.L_CORE X_NUC_87.L_CORE 0.002774
K_429 X_NUC_5.L_CORE X_NUC_88.L_CORE 0.003110
K_430 X_NUC_5.L_CORE X_NUC_89.L_CORE 0.002914
K_431 X_NUC_6.L_CORE X_NUC_7.L_CORE 0.207973
K_432 X_NUC_6.L_CORE X_NUC_8.L_CORE 0.207973
K_433 X_NUC_6.L_CORE X_NUC_9.L_CORE 0.005071
K_434 X_NUC_6.L_CORE X_NUC_10.L_CORE 0.005189
K_435 X_NUC_6.L_CORE X_NUC_11.L_CORE 0.005098
K_436 X_NUC_6.L_CORE X_NUC_12.L_CORE 0.005143
K_437 X_NUC_6.L_CORE X_NUC_13.L_CORE 0.006268
K_438 X_NUC_6.L_CORE X_NUC_14.L_CORE 0.006360
K_439 X_NUC_6.L_CORE X_NUC_15.L_CORE 0.006363
K_440 X_NUC_6.L_CORE X_NUC_16.L_CORE 0.006203
K_441 X_NUC_6.L_CORE X_NUC_17.L_CORE 0.007901
K_442 X_NUC_6.L_CORE X_NUC_18.L_CORE 0.007928
K_443 X_NUC_6.L_CORE X_NUC_19.L_CORE 0.007695
K_444 X_NUC_6.L_CORE X_NUC_20.L_CORE 0.007958
K_445 X_NUC_6.L_CORE X_NUC_21.L_CORE 0.003866
K_446 X_NUC_6.L_CORE X_NUC_22.L_CORE 0.003936
K_447 X_NUC_6.L_CORE X_NUC_23.L_CORE 0.003891
K_448 X_NUC_6.L_CORE X_NUC_24.L_CORE 0.003880
K_449 X_NUC_6.L_CORE X_NUC_25.L_CORE 0.007697
K_450 X_NUC_6.L_CORE X_NUC_26.L_CORE 0.007599
K_451 X_NUC_6.L_CORE X_NUC_27.L_CORE 0.007601
K_452 X_NUC_6.L_CORE X_NUC_28.L_CORE 0.007429
K_453 X_NUC_6.L_CORE X_NUC_29.L_CORE 0.004213
K_454 X_NUC_6.L_CORE X_NUC_30.L_CORE 0.004265
K_455 X_NUC_6.L_CORE X_NUC_31.L_CORE 0.004184
K_456 X_NUC_6.L_CORE X_NUC_32.L_CORE 0.004239
K_457 X_NUC_6.L_CORE X_NUC_33.L_CORE 0.003836
K_458 X_NUC_6.L_CORE X_NUC_34.L_CORE 0.003882
K_459 X_NUC_6.L_CORE X_NUC_35.L_CORE 0.003856
K_460 X_NUC_6.L_CORE X_NUC_36.L_CORE 0.003813
K_461 X_NUC_6.L_CORE X_NUC_37.L_CORE 0.006013
K_462 X_NUC_6.L_CORE X_NUC_38.L_CORE 0.005948
K_463 X_NUC_6.L_CORE X_NUC_39.L_CORE 0.005849
K_464 X_NUC_6.L_CORE X_NUC_40.L_CORE 0.005908
K_465 X_NUC_6.L_CORE X_NUC_41.L_CORE 0.003276
K_466 X_NUC_6.L_CORE X_NUC_42.L_CORE 0.003319
K_467 X_NUC_6.L_CORE X_NUC_43.L_CORE 0.003273
K_468 X_NUC_6.L_CORE X_NUC_44.L_CORE 0.003282
K_469 X_NUC_6.L_CORE X_NUC_45.L_CORE 0.004272
K_470 X_NUC_6.L_CORE X_NUC_46.L_CORE 0.004278
K_471 X_NUC_6.L_CORE X_NUC_47.L_CORE 0.004256
K_472 X_NUC_6.L_CORE X_NUC_48.L_CORE 0.004201
K_473 X_NUC_6.L_CORE X_NUC_49.L_CORE 0.003945
K_474 X_NUC_6.L_CORE X_NUC_50.L_CORE 0.003961
K_475 X_NUC_6.L_CORE X_NUC_51.L_CORE 0.003891
K_476 X_NUC_6.L_CORE X_NUC_52.L_CORE 0.003934
K_477 X_NUC_6.L_CORE X_NUC_53.L_CORE 0.003101
K_478 X_NUC_6.L_CORE X_NUC_54.L_CORE 0.003134
K_479 X_NUC_6.L_CORE X_NUC_55.L_CORE 0.003102
K_480 X_NUC_6.L_CORE X_NUC_56.L_CORE 0.003089
K_481 X_NUC_6.L_CORE X_NUC_57.L_CORE 0.004205
K_482 X_NUC_6.L_CORE X_NUC_58.L_CORE 0.004188
K_483 X_NUC_6.L_CORE X_NUC_59.L_CORE 0.004144
K_484 X_NUC_6.L_CORE X_NUC_60.L_CORE 0.004134
K_485 X_NUC_6.L_CORE X_NUC_61.L_CORE 0.003113
K_486 X_NUC_6.L_CORE X_NUC_62.L_CORE 0.003138
K_487 X_NUC_6.L_CORE X_NUC_63.L_CORE 0.003093
K_488 X_NUC_6.L_CORE X_NUC_64.L_CORE 0.003107
K_489 X_NUC_6.L_CORE X_NUC_65.L_CORE 0.003219
K_490 X_NUC_6.L_CORE X_NUC_66.L_CORE 0.003236
K_491 X_NUC_6.L_CORE X_NUC_67.L_CORE 0.003206
K_492 X_NUC_6.L_CORE X_NUC_68.L_CORE 0.003188
K_493 X_NUC_6.L_CORE X_NUC_69.L_CORE 0.003422
K_494 X_NUC_6.L_CORE X_NUC_70.L_CORE 0.003427
K_495 X_NUC_6.L_CORE X_NUC_71.L_CORE 0.003380
K_496 X_NUC_6.L_CORE X_NUC_72.L_CORE 0.003391
K_497 X_NUC_6.L_CORE X_NUC_73.L_CORE 0.002958
K_498 X_NUC_6.L_CORE X_NUC_74.L_CORE 0.002977
K_499 X_NUC_6.L_CORE X_NUC_75.L_CORE 0.002941
K_500 X_NUC_6.L_CORE X_NUC_76.L_CORE 0.002940
K_501 X_NUC_6.L_CORE X_NUC_77.L_CORE 0.006096
K_502 X_NUC_6.L_CORE X_NUC_78.L_CORE 0.028313
K_503 X_NUC_6.L_CORE X_NUC_79.L_CORE 0.004233
K_504 X_NUC_6.L_CORE X_NUC_80.L_CORE 0.005002
K_505 X_NUC_6.L_CORE X_NUC_81.L_CORE 0.005761
K_506 X_NUC_6.L_CORE X_NUC_82.L_CORE 0.003210
K_507 X_NUC_6.L_CORE X_NUC_83.L_CORE 0.005137
K_508 X_NUC_6.L_CORE X_NUC_84.L_CORE 0.003371
K_509 X_NUC_6.L_CORE X_NUC_85.L_CORE 0.003106
K_510 X_NUC_6.L_CORE X_NUC_86.L_CORE 0.003925
K_511 X_NUC_6.L_CORE X_NUC_87.L_CORE 0.002750
K_512 X_NUC_6.L_CORE X_NUC_88.L_CORE 0.003106
K_513 X_NUC_6.L_CORE X_NUC_89.L_CORE 0.002906
K_514 X_NUC_7.L_CORE X_NUC_8.L_CORE 0.207973
K_515 X_NUC_7.L_CORE X_NUC_9.L_CORE 0.005159
K_516 X_NUC_7.L_CORE X_NUC_10.L_CORE 0.005282
K_517 X_NUC_7.L_CORE X_NUC_11.L_CORE 0.005189
K_518 X_NUC_7.L_CORE X_NUC_12.L_CORE 0.005235
K_519 X_NUC_7.L_CORE X_NUC_13.L_CORE 0.006262
K_520 X_NUC_7.L_CORE X_NUC_14.L_CORE 0.006351
K_521 X_NUC_7.L_CORE X_NUC_15.L_CORE 0.006360
K_522 X_NUC_7.L_CORE X_NUC_16.L_CORE 0.006198
K_523 X_NUC_7.L_CORE X_NUC_17.L_CORE 0.008147
K_524 X_NUC_7.L_CORE X_NUC_18.L_CORE 0.008170
K_525 X_NUC_7.L_CORE X_NUC_19.L_CORE 0.007928
K_526 X_NUC_7.L_CORE X_NUC_20.L_CORE 0.008209
K_527 X_NUC_7.L_CORE X_NUC_21.L_CORE 0.003909
K_528 X_NUC_7.L_CORE X_NUC_22.L_CORE 0.003980
K_529 X_NUC_7.L_CORE X_NUC_23.L_CORE 0.003936
K_530 X_NUC_7.L_CORE X_NUC_24.L_CORE 0.003924
K_531 X_NUC_7.L_CORE X_NUC_25.L_CORE 0.007690
K_532 X_NUC_7.L_CORE X_NUC_26.L_CORE 0.007588
K_533 X_NUC_7.L_CORE X_NUC_27.L_CORE 0.007599
K_534 X_NUC_7.L_CORE X_NUC_28.L_CORE 0.007423
K_535 X_NUC_7.L_CORE X_NUC_29.L_CORE 0.004295
K_536 X_NUC_7.L_CORE X_NUC_30.L_CORE 0.004350
K_537 X_NUC_7.L_CORE X_NUC_31.L_CORE 0.004265
K_538 X_NUC_7.L_CORE X_NUC_32.L_CORE 0.004323
K_539 X_NUC_7.L_CORE X_NUC_33.L_CORE 0.003861
K_540 X_NUC_7.L_CORE X_NUC_34.L_CORE 0.003907
K_541 X_NUC_7.L_CORE X_NUC_35.L_CORE 0.003882
K_542 X_NUC_7.L_CORE X_NUC_36.L_CORE 0.003838
K_543 X_NUC_7.L_CORE X_NUC_37.L_CORE 0.006119
K_544 X_NUC_7.L_CORE X_NUC_38.L_CORE 0.006048
K_545 X_NUC_7.L_CORE X_NUC_39.L_CORE 0.005948
K_546 X_NUC_7.L_CORE X_NUC_40.L_CORE 0.006008
K_547 X_NUC_7.L_CORE X_NUC_41.L_CORE 0.003322
K_548 X_NUC_7.L_CORE X_NUC_42.L_CORE 0.003367
K_549 X_NUC_7.L_CORE X_NUC_43.L_CORE 0.003319
K_550 X_NUC_7.L_CORE X_NUC_44.L_CORE 0.003328
K_551 X_NUC_7.L_CORE X_NUC_45.L_CORE 0.004294
K_552 X_NUC_7.L_CORE X_NUC_46.L_CORE 0.004299
K_553 X_NUC_7.L_CORE X_NUC_47.L_CORE 0.004278
K_554 X_NUC_7.L_CORE X_NUC_48.L_CORE 0.004222
K_555 X_NUC_7.L_CORE X_NUC_49.L_CORE 0.004018
K_556 X_NUC_7.L_CORE X_NUC_50.L_CORE 0.004034
K_557 X_NUC_7.L_CORE X_NUC_51.L_CORE 0.003961
K_558 X_NUC_7.L_CORE X_NUC_52.L_CORE 0.004006
K_559 X_NUC_7.L_CORE X_NUC_53.L_CORE 0.003133
K_560 X_NUC_7.L_CORE X_NUC_54.L_CORE 0.003166
K_561 X_NUC_7.L_CORE X_NUC_55.L_CORE 0.003134
K_562 X_NUC_7.L_CORE X_NUC_56.L_CORE 0.003121
K_563 X_NUC_7.L_CORE X_NUC_57.L_CORE 0.004250
K_564 X_NUC_7.L_CORE X_NUC_58.L_CORE 0.004232
K_565 X_NUC_7.L_CORE X_NUC_59.L_CORE 0.004188
K_566 X_NUC_7.L_CORE X_NUC_60.L_CORE 0.004177
K_567 X_NUC_7.L_CORE X_NUC_61.L_CORE 0.003159
K_568 X_NUC_7.L_CORE X_NUC_62.L_CORE 0.003186
K_569 X_NUC_7.L_CORE X_NUC_63.L_CORE 0.003138
K_570 X_NUC_7.L_CORE X_NUC_64.L_CORE 0.003153
K_571 X_NUC_7.L_CORE X_NUC_65.L_CORE 0.003248
K_572 X_NUC_7.L_CORE X_NUC_66.L_CORE 0.003265
K_573 X_NUC_7.L_CORE X_NUC_67.L_CORE 0.003236
K_574 X_NUC_7.L_CORE X_NUC_68.L_CORE 0.003216
K_575 X_NUC_7.L_CORE X_NUC_69.L_CORE 0.003469
K_576 X_NUC_7.L_CORE X_NUC_70.L_CORE 0.003474
K_577 X_NUC_7.L_CORE X_NUC_71.L_CORE 0.003427
K_578 X_NUC_7.L_CORE X_NUC_72.L_CORE 0.003437
K_579 X_NUC_7.L_CORE X_NUC_73.L_CORE 0.002994
K_580 X_NUC_7.L_CORE X_NUC_74.L_CORE 0.003013
K_581 X_NUC_7.L_CORE X_NUC_75.L_CORE 0.002977
K_582 X_NUC_7.L_CORE X_NUC_76.L_CORE 0.002976
K_583 X_NUC_7.L_CORE X_NUC_77.L_CORE 0.006111
K_584 X_NUC_7.L_CORE X_NUC_78.L_CORE 0.025898
K_585 X_NUC_7.L_CORE X_NUC_79.L_CORE 0.004295