* Applied Vacuum Engineering (AVE) - SPICE Netlist
* Element: Zinc-65 (Z=30, A=65)
* Auto-generated topological mutual impedance array
* Nodes: 65



* -----------------------------------------------------------------
* NUCLEON (Baseline 6^3_2 Topological Defect)
* -----------------------------------------------------------------
.SUBCKT NUCLEON IN OUT
L_CORE IN OUT 1uH
C_CORE IN OUT 1pF
.ENDS NUCLEON



* -----------------------------------------------------------------
* MACROSCOPIC TOPOLOGY (Nucleon Array)
* -----------------------------------------------------------------
V_STIM NODE_1 0 AC 1 PULSE(0 100k 10n 1n 1n 50n 100n)

X_NUC_1 NODE_1 0 NUCLEON
X_NUC_2 NODE_2 0 NUCLEON
X_NUC_3 NODE_3 0 NUCLEON
X_NUC_4 NODE_4 0 NUCLEON
X_NUC_5 NODE_5 0 NUCLEON
X_NUC_6 NODE_6 0 NUCLEON
X_NUC_7 NODE_7 0 NUCLEON
X_NUC_8 NODE_8 0 NUCLEON
X_NUC_9 NODE_9 0 NUCLEON
X_NUC_10 NODE_10 0 NUCLEON
X_NUC_11 NODE_11 0 NUCLEON
X_NUC_12 NODE_12 0 NUCLEON
X_NUC_13 NODE_13 0 NUCLEON
X_NUC_14 NODE_14 0 NUCLEON
X_NUC_15 NODE_15 0 NUCLEON
X_NUC_16 NODE_16 0 NUCLEON
X_NUC_17 NODE_17 0 NUCLEON
X_NUC_18 NODE_18 0 NUCLEON
X_NUC_19 NODE_19 0 NUCLEON
X_NUC_20 NODE_20 0 NUCLEON
X_NUC_21 NODE_21 0 NUCLEON
X_NUC_22 NODE_22 0 NUCLEON
X_NUC_23 NODE_23 0 NUCLEON
X_NUC_24 NODE_24 0 NUCLEON
X_NUC_25 NODE_25 0 NUCLEON
X_NUC_26 NODE_26 0 NUCLEON
X_NUC_27 NODE_27 0 NUCLEON
X_NUC_28 NODE_28 0 NUCLEON
X_NUC_29 NODE_29 0 NUCLEON
X_NUC_30 NODE_30 0 NUCLEON
X_NUC_31 NODE_31 0 NUCLEON
X_NUC_32 NODE_32 0 NUCLEON
X_NUC_33 NODE_33 0 NUCLEON
X_NUC_34 NODE_34 0 NUCLEON
X_NUC_35 NODE_35 0 NUCLEON
X_NUC_36 NODE_36 0 NUCLEON
X_NUC_37 NODE_37 0 NUCLEON
X_NUC_38 NODE_38 0 NUCLEON
X_NUC_39 NODE_39 0 NUCLEON
X_NUC_40 NODE_40 0 NUCLEON
X_NUC_41 NODE_41 0 NUCLEON
X_NUC_42 NODE_42 0 NUCLEON
X_NUC_43 NODE_43 0 NUCLEON
X_NUC_44 NODE_44 0 NUCLEON
X_NUC_45 NODE_45 0 NUCLEON
X_NUC_46 NODE_46 0 NUCLEON
X_NUC_47 NODE_47 0 NUCLEON
X_NUC_48 NODE_48 0 NUCLEON
X_NUC_49 NODE_49 0 NUCLEON
X_NUC_50 NODE_50 0 NUCLEON
X_NUC_51 NODE_51 0 NUCLEON
X_NUC_52 NODE_52 0 NUCLEON
X_NUC_53 NODE_53 0 NUCLEON
X_NUC_54 NODE_54 0 NUCLEON
X_NUC_55 NODE_55 0 NUCLEON
X_NUC_56 NODE_56 0 NUCLEON
X_NUC_57 NODE_57 0 NUCLEON
X_NUC_58 NODE_58 0 NUCLEON
X_NUC_59 NODE_59 0 NUCLEON
X_NUC_60 NODE_60 0 NUCLEON
X_NUC_61 NODE_61 0 NUCLEON
X_NUC_62 NODE_62 0 NUCLEON
X_NUC_63 NODE_63 0 NUCLEON
X_NUC_64 NODE_64 0 NUCLEON
X_NUC_65 NODE_65 0 NUCLEON


* -----------------------------------------------------------------
* SPATIAL MUTUAL INDUCTANCE (K-FACTORS)
* -----------------------------------------------------------------
K_1 X_NUC_1.L_CORE X_NUC_2.L_CORE 0.207973
K_2 X_NUC_1.L_CORE X_NUC_3.L_CORE 0.207973
K_3 X_NUC_1.L_CORE X_NUC_4.L_CORE 0.207973
K_4 X_NUC_1.L_CORE X_NUC_5.L_CORE 0.008442
K_5 X_NUC_1.L_CORE X_NUC_6.L_CORE 0.008131
K_6 X_NUC_1.L_CORE X_NUC_7.L_CORE 0.008196
K_7 X_NUC_1.L_CORE X_NUC_8.L_CORE 0.008295
K_8 X_NUC_1.L_CORE X_NUC_9.L_CORE 0.009104
K_9 X_NUC_1.L_CORE X_NUC_10.L_CORE 0.009249
K_10 X_NUC_1.L_CORE X_NUC_11.L_CORE 0.008914
K_11 X_NUC_1.L_CORE X_NUC_12.L_CORE 0.009258
K_12 X_NUC_1.L_CORE X_NUC_13.L_CORE 0.009619
K_13 X_NUC_1.L_CORE X_NUC_14.L_CORE 0.009412
K_14 X_NUC_1.L_CORE X_NUC_15.L_CORE 0.009514
K_15 X_NUC_1.L_CORE X_NUC_16.L_CORE 0.009213
K_16 X_NUC_1.L_CORE X_NUC_17.L_CORE 0.005558
K_17 X_NUC_1.L_CORE X_NUC_18.L_CORE 0.005474
K_18 X_NUC_1.L_CORE X_NUC_19.L_CORE 0.005425
K_19 X_NUC_1.L_CORE X_NUC_20.L_CORE 0.005528
K_20 X_NUC_1.L_CORE X_NUC_21.L_CORE 0.007998
K_21 X_NUC_1.L_CORE X_NUC_22.L_CORE 0.008221
K_22 X_NUC_1.L_CORE X_NUC_23.L_CORE 0.007944
K_23 X_NUC_1.L_CORE X_NUC_24.L_CORE 0.007958
K_24 X_NUC_1.L_CORE X_NUC_25.L_CORE 0.005509
K_25 X_NUC_1.L_CORE X_NUC_26.L_CORE 0.005394
K_26 X_NUC_1.L_CORE X_NUC_27.L_CORE 0.005405
K_27 X_NUC_1.L_CORE X_NUC_28.L_CORE 0.005381
K_28 X_NUC_1.L_CORE X_NUC_29.L_CORE 0.005020
K_29 X_NUC_1.L_CORE X_NUC_30.L_CORE 0.005022
K_30 X_NUC_1.L_CORE X_NUC_31.L_CORE 0.004923
K_31 X_NUC_1.L_CORE X_NUC_32.L_CORE 0.005016
K_32 X_NUC_1.L_CORE X_NUC_33.L_CORE 0.006097
K_33 X_NUC_1.L_CORE X_NUC_34.L_CORE 0.006117
K_34 X_NUC_1.L_CORE X_NUC_35.L_CORE 0.006045
K_35 X_NUC_1.L_CORE X_NUC_36.L_CORE 0.005957
K_36 X_NUC_1.L_CORE X_NUC_37.L_CORE 0.004327
K_37 X_NUC_1.L_CORE X_NUC_38.L_CORE 0.004269
K_38 X_NUC_1.L_CORE X_NUC_39.L_CORE 0.004241
K_39 X_NUC_1.L_CORE X_NUC_40.L_CORE 0.004271
K_40 X_NUC_1.L_CORE X_NUC_41.L_CORE 0.004879
K_41 X_NUC_1.L_CORE X_NUC_42.L_CORE 0.004922
K_42 X_NUC_1.L_CORE X_NUC_43.L_CORE 0.004812
K_43 X_NUC_1.L_CORE X_NUC_44.L_CORE 0.004852
K_44 X_NUC_1.L_CORE X_NUC_45.L_CORE 0.004569
K_45 X_NUC_1.L_CORE X_NUC_46.L_CORE 0.004530
K_46 X_NUC_1.L_CORE X_NUC_47.L_CORE 0.004503
K_47 X_NUC_1.L_CORE X_NUC_48.L_CORE 0.004475
K_48 X_NUC_1.L_CORE X_NUC_49.L_CORE 0.003980
K_49 X_NUC_1.L_CORE X_NUC_50.L_CORE 0.003962
K_50 X_NUC_1.L_CORE X_NUC_51.L_CORE 0.003909
K_51 X_NUC_1.L_CORE X_NUC_52.L_CORE 0.003946
K_52 X_NUC_1.L_CORE X_NUC_53.L_CORE 0.004372
K_53 X_NUC_1.L_CORE X_NUC_54.L_CORE 0.004385
K_54 X_NUC_1.L_CORE X_NUC_55.L_CORE 0.004317
K_55 X_NUC_1.L_CORE X_NUC_56.L_CORE 0.004313
K_56 X_NUC_1.L_CORE X_NUC_57.L_CORE 0.003886
K_57 X_NUC_1.L_CORE X_NUC_58.L_CORE 0.003863
K_58 X_NUC_1.L_CORE X_NUC_59.L_CORE 0.003823
K_59 X_NUC_1.L_CORE X_NUC_60.L_CORE 0.003830
K_60 X_NUC_1.L_CORE X_NUC_61.L_CORE 0.020647
K_61 X_NUC_1.L_CORE X_NUC_62.L_CORE 0.005093
K_62 X_NUC_1.L_CORE X_NUC_63.L_CORE 0.004901
K_63 X_NUC_1.L_CORE X_NUC_64.L_CORE 0.004422
K_64 X_NUC_1.L_CORE X_NUC_65.L_CORE 0.003439
K_65 X_NUC_2.L_CORE X_NUC_3.L_CORE 0.207973
K_66 X_NUC_2.L_CORE X_NUC_4.L_CORE 0.207973
K_67 X_NUC_2.L_CORE X_NUC_5.L_CORE 0.008775
K_68 X_NUC_2.L_CORE X_NUC_6.L_CORE 0.008442
K_69 X_NUC_2.L_CORE X_NUC_7.L_CORE 0.008508
K_70 X_NUC_2.L_CORE X_NUC_8.L_CORE 0.008618
K_71 X_NUC_2.L_CORE X_NUC_9.L_CORE 0.008949
K_72 X_NUC_2.L_CORE X_NUC_10.L_CORE 0.009104
K_73 X_NUC_2.L_CORE X_NUC_11.L_CORE 0.008776
K_74 X_NUC_2.L_CORE X_NUC_12.L_CORE 0.009104
K_75 X_NUC_2.L_CORE X_NUC_13.L_CORE 0.009818
K_76 X_NUC_2.L_CORE X_NUC_14.L_CORE 0.009619
K_77 X_NUC_2.L_CORE X_NUC_15.L_CORE 0.009717
K_78 X_NUC_2.L_CORE X_NUC_16.L_CORE 0.009397
K_79 X_NUC_2.L_CORE X_NUC_17.L_CORE 0.005642
K_80 X_NUC_2.L_CORE X_NUC_18.L_CORE 0.005558
K_81 X_NUC_2.L_CORE X_NUC_19.L_CORE 0.005504
K_82 X_NUC_2.L_CORE X_NUC_20.L_CORE 0.005613
K_83 X_NUC_2.L_CORE X_NUC_21.L_CORE 0.007781
K_84 X_NUC_2.L_CORE X_NUC_22.L_CORE 0.007998
K_85 X_NUC_2.L_CORE X_NUC_23.L_CORE 0.007737
K_86 X_NUC_2.L_CORE X_NUC_24.L_CORE 0.007750
K_87 X_NUC_2.L_CORE X_NUC_25.L_CORE 0.005627
K_88 X_NUC_2.L_CORE X_NUC_26.L_CORE 0.005509
K_89 X_NUC_2.L_CORE X_NUC_27.L_CORE 0.005518
K_90 X_NUC_2.L_CORE X_NUC_28.L_CORE 0.005493
K_91 X_NUC_2.L_CORE X_NUC_29.L_CORE 0.005015
K_92 X_NUC_2.L_CORE X_NUC_30.L_CORE 0.005020
K_93 X_NUC_2.L_CORE X_NUC_31.L_CORE 0.004919
K_94 X_NUC_2.L_CORE X_NUC_32.L_CORE 0.005012
K_95 X_NUC_2.L_CORE X_NUC_33.L_CORE 0.006071
K_96 X_NUC_2.L_CORE X_NUC_34.L_CORE 0.006097
K_97 X_NUC_2.L_CORE X_NUC_35.L_CORE 0.006022
K_98 X_NUC_2.L_CORE X_NUC_36.L_CORE 0.005936
K_99 X_NUC_2.L_CORE X_NUC_37.L_CORE 0.004385
K_100 X_NUC_2.L_CORE X_NUC_38.L_CORE 0.004327
K_101 X_NUC_2.L_CORE X_NUC_39.L_CORE 0.004296
K_102 X_NUC_2.L_CORE X_NUC_40.L_CORE 0.004328
K_103 X_NUC_2.L_CORE X_NUC_41.L_CORE 0.004834
K_104 X_NUC_2.L_CORE X_NUC_42.L_CORE 0.004879
K_105 X_NUC_2.L_CORE X_NUC_43.L_CORE 0.004770
K_106 X_NUC_2.L_CORE X_NUC_44.L_CORE 0.004809
K_107 X_NUC_2.L_CORE X_NUC_45.L_CORE 0.004607
K_108 X_NUC_2.L_CORE X_NUC_46.L_CORE 0.004569
K_109 X_NUC_2.L_CORE X_NUC_47.L_CORE 0.004540
K_110 X_NUC_2.L_CORE X_NUC_48.L_CORE 0.004511
K_111 X_NUC_2.L_CORE X_NUC_49.L_CORE 0.003997
K_112 X_NUC_2.L_CORE X_NUC_50.L_CORE 0.003980
K_113 X_NUC_2.L_CORE X_NUC_51.L_CORE 0.003926
K_114 X_NUC_2.L_CORE X_NUC_52.L_CORE 0.003963
K_115 X_NUC_2.L_CORE X_NUC_53.L_CORE 0.004358
K_116 X_NUC_2.L_CORE X_NUC_54.L_CORE 0.004372
K_117 X_NUC_2.L_CORE X_NUC_55.L_CORE 0.004304
K_118 X_NUC_2.L_CORE X_NUC_56.L_CORE 0.004301
K_119 X_NUC_2.L_CORE X_NUC_57.L_CORE 0.003908
K_120 X_NUC_2.L_CORE X_NUC_58.L_CORE 0.003886
K_121 X_NUC_2.L_CORE X_NUC_59.L_CORE 0.003845
K_122 X_NUC_2.L_CORE X_NUC_60.L_CORE 0.003852
K_123 X_NUC_2.L_CORE X_NUC_61.L_CORE 0.019301
K_124 X_NUC_2.L_CORE X_NUC_62.L_CORE 0.005212
K_125 X_NUC_2.L_CORE X_NUC_63.L_CORE 0.004850
K_126 X_NUC_2.L_CORE X_NUC_64.L_CORE 0.004444
K_127 X_NUC_2.L_CORE X_NUC_65.L_CORE 0.003456
K_128 X_NUC_3.L_CORE X_NUC_4.L_CORE 0.207973
K_129 X_NUC_3.L_CORE X_NUC_5.L_CORE 0.008695
K_130 X_NUC_3.L_CORE X_NUC_6.L_CORE 0.008363
K_131 X_NUC_3.L_CORE X_NUC_7.L_CORE 0.008442
K_132 X_NUC_3.L_CORE X_NUC_8.L_CORE 0.008542
K_133 X_NUC_3.L_CORE X_NUC_9.L_CORE 0.009288
K_134 X_NUC_3.L_CORE X_NUC_10.L_CORE 0.009452
K_135 X_NUC_3.L_CORE X_NUC_11.L_CORE 0.009104
K_136 X_NUC_3.L_CORE X_NUC_12.L_CORE 0.009462
K_137 X_NUC_3.L_CORE X_NUC_13.L_CORE 0.009706
K_138 X_NUC_3.L_CORE X_NUC_14.L_CORE 0.009504
K_139 X_NUC_3.L_CORE X_NUC_15.L_CORE 0.009619
K_140 X_NUC_3.L_CORE X_NUC_16.L_CORE 0.009299
K_141 X_NUC_3.L_CORE X_NUC_17.L_CORE 0.005698
K_142 X_NUC_3.L_CORE X_NUC_18.L_CORE 0.005610
K_143 X_NUC_3.L_CORE X_NUC_19.L_CORE 0.005558
K_144 X_NUC_3.L_CORE X_NUC_20.L_CORE 0.005668
K_145 X_NUC_3.L_CORE X_NUC_21.L_CORE 0.008041
K_146 X_NUC_3.L_CORE X_NUC_22.L_CORE 0.008274
K_147 X_NUC_3.L_CORE X_NUC_23.L_CORE 0.007998
K_148 X_NUC_3.L_CORE X_NUC_24.L_CORE 0.008006
K_149 X_NUC_3.L_CORE X_NUC_25.L_CORE 0.005615
K_150 X_NUC_3.L_CORE X_NUC_26.L_CORE 0.005495
K_151 X_NUC_3.L_CORE X_NUC_27.L_CORE 0.005509
K_152 X_NUC_3.L_CORE X_NUC_28.L_CORE 0.005482
K_153 X_NUC_3.L_CORE X_NUC_29.L_CORE 0.005120
K_154 X_NUC_3.L_CORE X_NUC_30.L_CORE 0.005124
K_155 X_NUC_3.L_CORE X_NUC_31.L_CORE 0.005020
K_156 X_NUC_3.L_CORE X_NUC_32.L_CORE 0.005117
K_157 X_NUC_3.L_CORE X_NUC_33.L_CORE 0.006144
K_158 X_NUC_3.L_CORE X_NUC_34.L_CORE 0.006168
K_159 X_NUC_3.L_CORE X_NUC_35.L_CORE 0.006097
K_160 X_NUC_3.L_CORE X_NUC_36.L_CORE 0.006004
K_161 X_NUC_3.L_CORE X_NUC_37.L_CORE 0.004417
K_162 X_NUC_3.L_CORE X_NUC_38.L_CORE 0.004356
K_163 X_NUC_3.L_CORE X_NUC_39.L_CORE 0.004327
K_164 X_NUC_3.L_CORE X_NUC_40.L_CORE 0.004358
K_165 X_NUC_3.L_CORE X_NUC_41.L_CORE 0.004946
K_166 X_NUC_3.L_CORE X_NUC_42.L_CORE 0.004993
K_167 X_NUC_3.L_CORE X_NUC_43.L_CORE 0.004879
K_168 X_NUC_3.L_CORE X_NUC_44.L_CORE 0.004919
K_169 X_NUC_3.L_CORE X_NUC_45.L_CORE 0.004636
K_170 X_NUC_3.L_CORE X_NUC_46.L_CORE 0.004596
K_171 X_NUC_3.L_CORE X_NUC_47.L_CORE 0.004569
K_172 X_NUC_3.L_CORE X_NUC_48.L_CORE 0.004539
K_173 X_NUC_3.L_CORE X_NUC_49.L_CORE 0.004055
K_174 X_NUC_3.L_CORE X_NUC_50.L_CORE 0.004036
K_175 X_NUC_3.L_CORE X_NUC_51.L_CORE 0.003980
K_176 X_NUC_3.L_CORE X_NUC_52.L_CORE 0.004019
K_177 X_NUC_3.L_CORE X_NUC_53.L_CORE 0.004428
K_178 X_NUC_3.L_CORE X_NUC_54.L_CORE 0.004442
K_179 X_NUC_3.L_CORE X_NUC_55.L_CORE 0.004372
K_180 X_NUC_3.L_CORE X_NUC_56.L_CORE 0.004368
K_181 X_NUC_3.L_CORE X_NUC_57.L_CORE 0.003950
K_182 X_NUC_3.L_CORE X_NUC_58.L_CORE 0.003927
K_183 X_NUC_3.L_CORE X_NUC_59.L_CORE 0.003886
K_184 X_NUC_3.L_CORE X_NUC_60.L_CORE 0.003892
K_185 X_NUC_3.L_CORE X_NUC_61.L_CORE 0.019130
K_186 X_NUC_3.L_CORE X_NUC_62.L_CORE 0.005192
K_187 X_NUC_3.L_CORE X_NUC_63.L_CORE 0.004964
K_188 X_NUC_3.L_CORE X_NUC_64.L_CORE 0.004465
K_189 X_NUC_3.L_CORE X_NUC_65.L_CORE 0.003495
K_190 X_NUC_4.L_CORE X_NUC_5.L_CORE 0.008582
K_191 X_NUC_4.L_CORE X_NUC_6.L_CORE 0.008262
K_192 X_NUC_4.L_CORE X_NUC_7.L_CORE 0.008331
K_193 X_NUC_4.L_CORE X_NUC_8.L_CORE 0.008442
K_194 X_NUC_4.L_CORE X_NUC_9.L_CORE 0.008940
K_195 X_NUC_4.L_CORE X_NUC_10.L_CORE 0.009086
K_196 X_NUC_4.L_CORE X_NUC_11.L_CORE 0.008768
K_197 X_NUC_4.L_CORE X_NUC_12.L_CORE 0.009104
K_198 X_NUC_4.L_CORE X_NUC_13.L_CORE 0.010060
K_199 X_NUC_4.L_CORE X_NUC_14.L_CORE 0.009835
K_200 X_NUC_4.L_CORE X_NUC_15.L_CORE 0.009952
K_201 X_NUC_4.L_CORE X_NUC_16.L_CORE 0.009619
K_202 X_NUC_4.L_CORE X_NUC_17.L_CORE 0.005585
K_203 X_NUC_4.L_CORE X_NUC_18.L_CORE 0.005502
K_204 X_NUC_4.L_CORE X_NUC_19.L_CORE 0.005451
K_205 X_NUC_4.L_CORE X_NUC_20.L_CORE 0.005558
K_206 X_NUC_4.L_CORE X_NUC_21.L_CORE 0.008026
K_207 X_NUC_4.L_CORE X_NUC_22.L_CORE 0.008259
K_208 X_NUC_4.L_CORE X_NUC_23.L_CORE 0.007978
K_209 X_NUC_4.L_CORE X_NUC_24.L_CORE 0.007998
K_210 X_NUC_4.L_CORE X_NUC_25.L_CORE 0.005642
K_211 X_NUC_4.L_CORE X_NUC_26.L_CORE 0.005520
K_212 X_NUC_4.L_CORE X_NUC_27.L_CORE 0.005532
K_213 X_NUC_4.L_CORE X_NUC_28.L_CORE 0.005509
K_214 X_NUC_4.L_CORE X_NUC_29.L_CORE 0.005021
K_215 X_NUC_4.L_CORE X_NUC_30.L_CORE 0.005025
K_216 X_NUC_4.L_CORE X_NUC_31.L_CORE 0.004925
K_217 X_NUC_4.L_CORE X_NUC_32.L_CORE 0.005020
K_218 X_NUC_4.L_CORE X_NUC_33.L_CORE 0.006240
K_219 X_NUC_4.L_CORE X_NUC_34.L_CORE 0.006265
K_220 X_NUC_4.L_CORE X_NUC_35.L_CORE 0.006188
K_221 X_NUC_4.L_CORE X_NUC_36.L_CORE 0.006097
K_222 X_NUC_4.L_CORE X_NUC_37.L_CORE 0.004383
K_223 X_NUC_4.L_CORE X_NUC_38.L_CORE 0.004324
K_224 X_NUC_4.L_CORE X_NUC_39.L_CORE 0.004295
K_225 X_NUC_4.L_CORE X_NUC_40.L_CORE 0.004327
K_226 X_NUC_4.L_CORE X_NUC_41.L_CORE 0.004904
K_227 X_NUC_4.L_CORE X_NUC_42.L_CORE 0.004949
K_228 X_NUC_4.L_CORE X_NUC_43.L_CORE 0.004837
K_229 X_NUC_4.L_CORE X_NUC_44.L_CORE 0.004879
K_230 X_NUC_4.L_CORE X_NUC_45.L_CORE 0.004667
K_231 X_NUC_4.L_CORE X_NUC_46.L_CORE 0.004627
K_232 X_NUC_4.L_CORE X_NUC_47.L_CORE 0.004598
K_233 X_NUC_4.L_CORE X_NUC_48.L_CORE 0.004569
K_234 X_NUC_4.L_CORE X_NUC_49.L_CORE 0.004014
K_235 X_NUC_4.L_CORE X_NUC_50.L_CORE 0.003996
K_236 X_NUC_4.L_CORE X_NUC_51.L_CORE 0.003942
K_237 X_NUC_4.L_CORE X_NUC_52.L_CORE 0.003980
K_238 X_NUC_4.L_CORE X_NUC_53.L_CORE 0.004432
K_239 X_NUC_4.L_CORE X_NUC_54.L_CORE 0.004446
K_240 X_NUC_4.L_CORE X_NUC_55.L_CORE 0.004375
K_241 X_NUC_4.L_CORE X_NUC_56.L_CORE 0.004372
K_242 X_NUC_4.L_CORE X_NUC_57.L_CORE 0.003942
K_243 X_NUC_4.L_CORE X_NUC_58.L_CORE 0.003919
K_244 X_NUC_4.L_CORE X_NUC_59.L_CORE 0.003878
K_245 X_NUC_4.L_CORE X_NUC_60.L_CORE 0.003886
K_246 X_NUC_4.L_CORE X_NUC_61.L_CORE 0.020438
K_247 X_NUC_4.L_CORE X_NUC_62.L_CORE 0.005165
K_248 X_NUC_4.L_CORE X_NUC_63.L_CORE 0.004885
K_249 X_NUC_4.L_CORE X_NUC_64.L_CORE 0.004514
K_250 X_NUC_4.L_CORE X_NUC_65.L_CORE 0.003472
K_251 X_NUC_5.L_CORE X_NUC_6.L_CORE 0.207973
K_252 X_NUC_5.L_CORE X_NUC_7.L_CORE 0.207973
K_253 X_NUC_5.L_CORE X_NUC_8.L_CORE 0.207973
K_254 X_NUC_5.L_CORE X_NUC_9.L_CORE 0.006073
K_255 X_NUC_5.L_CORE X_NUC_10.L_CORE 0.006241
K_256 X_NUC_5.L_CORE X_NUC_11.L_CORE 0.006108
K_257 X_NUC_5.L_CORE X_NUC_12.L_CORE 0.006173
K_258 X_NUC_5.L_CORE X_NUC_13.L_CORE 0.007452
K_259 X_NUC_5.L_CORE X_NUC_14.L_CORE 0.007577
K_260 X_NUC_5.L_CORE X_NUC_15.L_CORE 0.007577
K_261 X_NUC_5.L_CORE X_NUC_16.L_CORE 0.007351
K_262 X_NUC_5.L_CORE X_NUC_17.L_CORE 0.009221
K_263 X_NUC_5.L_CORE X_NUC_18.L_CORE 0.009249
K_264 X_NUC_5.L_CORE X_NUC_19.L_CORE 0.008928
K_265 X_NUC_5.L_CORE X_NUC_20.L_CORE 0.009270
K_266 X_NUC_5.L_CORE X_NUC_21.L_CORE 0.004654
K_267 X_NUC_5.L_CORE X_NUC_22.L_CORE 0.004753
K_268 X_NUC_5.L_CORE X_NUC_23.L_CORE 0.004685
K_269 X_NUC_5.L_CORE X_NUC_24.L_CORE 0.004670
K_270 X_NUC_5.L_CORE X_NUC_25.L_CORE 0.008660
K_271 X_NUC_5.L_CORE X_NUC_26.L_CORE 0.008549
K_272 X_NUC_5.L_CORE X_NUC_27.L_CORE 0.008518
K_273 X_NUC_5.L_CORE X_NUC_28.L_CORE 0.008323
K_274 X_NUC_5.L_CORE X_NUC_29.L_CORE 0.005041
K_275 X_NUC_5.L_CORE X_NUC_30.L_CORE 0.005114
K_276 X_NUC_5.L_CORE X_NUC_31.L_CORE 0.004994
K_277 X_NUC_5.L_CORE X_NUC_32.L_CORE 0.005068
K_278 X_NUC_5.L_CORE X_NUC_33.L_CORE 0.004612
K_279 X_NUC_5.L_CORE X_NUC_34.L_CORE 0.004675
K_280 X_NUC_5.L_CORE X_NUC_35.L_CORE 0.004630
K_281 X_NUC_5.L_CORE X_NUC_36.L_CORE 0.004574
K_282 X_NUC_5.L_CORE X_NUC_37.L_CORE 0.006620
K_283 X_NUC_5.L_CORE X_NUC_38.L_CORE 0.006565
K_284 X_NUC_5.L_CORE X_NUC_39.L_CORE 0.006430
K_285 X_NUC_5.L_CORE X_NUC_40.L_CORE 0.006488
K_286 X_NUC_5.L_CORE X_NUC_41.L_CORE 0.004008
K_287 X_NUC_5.L_CORE X_NUC_42.L_CORE 0.004068
K_288 X_NUC_5.L_CORE X_NUC_43.L_CORE 0.003997
K_289 X_NUC_5.L_CORE X_NUC_44.L_CORE 0.004008
K_290 X_NUC_5.L_CORE X_NUC_45.L_CORE 0.004924
K_291 X_NUC_5.L_CORE X_NUC_46.L_CORE 0.004938
K_292 X_NUC_5.L_CORE X_NUC_47.L_CORE 0.004889
K_293 X_NUC_5.L_CORE X_NUC_48.L_CORE 0.004833
K_294 X_NUC_5.L_CORE X_NUC_49.L_CORE 0.004581
K_295 X_NUC_5.L_CORE X_NUC_50.L_CORE 0.004605
K_296 X_NUC_5.L_CORE X_NUC_51.L_CORE 0.004510
K_297 X_NUC_5.L_CORE X_NUC_52.L_CORE 0.004551
K_298 X_NUC_5.L_CORE X_NUC_53.L_CORE 0.003880
K_299 X_NUC_5.L_CORE X_NUC_54.L_CORE 0.003920
K_300 X_NUC_5.L_CORE X_NUC_55.L_CORE 0.003864
K_301 X_NUC_5.L_CORE X_NUC_56.L_CORE 0.003852
K_302 X_NUC_5.L_CORE X_NUC_57.L_CORE 0.004372
K_303 X_NUC_5.L_CORE X_NUC_58.L_CORE 0.004384
K_304 X_NUC_5.L_CORE X_NUC_59.L_CORE 0.004317
K_305 X_NUC_5.L_CORE X_NUC_60.L_CORE 0.004313
K_306 X_NUC_5.L_CORE X_NUC_61.L_CORE 0.006149
K_307 X_NUC_5.L_CORE X_NUC_62.L_CORE 0.012054
K_308 X_NUC_5.L_CORE X_NUC_63.L_CORE 0.004050
K_309 X_NUC_5.L_CORE X_NUC_64.L_CORE 0.004276
K_310 X_NUC_5.L_CORE X_NUC_65.L_CORE 0.004037
K_311 X_NUC_6.L_CORE X_NUC_7.L_CORE 0.207973
K_312 X_NUC_6.L_CORE X_NUC_8.L_CORE 0.207973
K_313 X_NUC_6.L_CORE X_NUC_9.L_CORE 0.005912
K_314 X_NUC_6.L_CORE X_NUC_10.L_CORE 0.006073
K_315 X_NUC_6.L_CORE X_NUC_11.L_CORE 0.005947
K_316 X_NUC_6.L_CORE X_NUC_12.L_CORE 0.006008
K_317 X_NUC_6.L_CORE X_NUC_13.L_CORE 0.007323
K_318 X_NUC_6.L_CORE X_NUC_14.L_CORE 0.007452
K_319 X_NUC_6.L_CORE X_NUC_15.L_CORE 0.007447
K_320 X_NUC_6.L_CORE X_NUC_16.L_CORE 0.007232
K_321 X_NUC_6.L_CORE X_NUC_17.L_CORE 0.009176
K_322 X_NUC_6.L_CORE X_NUC_18.L_CORE 0.009221
K_323 X_NUC_6.L_CORE X_NUC_19.L_CORE 0.008895
K_324 X_NUC_6.L_CORE X_NUC_20.L_CORE 0.009233
K_325 X_NUC_6.L_CORE X_NUC_21.L_CORE 0.004558
K_326 X_NUC_6.L_CORE X_NUC_22.L_CORE 0.004654
K_327 X_NUC_6.L_CORE X_NUC_23.L_CORE 0.004589
K_328 X_NUC_6.L_CORE X_NUC_24.L_CORE 0.004575
K_329 X_NUC_6.L_CORE X_NUC_25.L_CORE 0.008760
K_330 X_NUC_6.L_CORE X_NUC_26.L_CORE 0.008660
K_331 X_NUC_6.L_CORE X_NUC_27.L_CORE 0.008620
K_332 X_NUC_6.L_CORE X_NUC_28.L_CORE 0.008418
K_333 X_NUC_6.L_CORE X_NUC_29.L_CORE 0.004969
K_334 X_NUC_6.L_CORE X_NUC_30.L_CORE 0.005041
K_335 X_NUC_6.L_CORE X_NUC_31.L_CORE 0.004925
K_336 X_NUC_6.L_CORE X_NUC_32.L_CORE 0.004996
K_337 X_NUC_6.L_CORE X_NUC_33.L_CORE 0.004550
K_338 X_NUC_6.L_CORE X_NUC_34.L_CORE 0.004612
K_339 X_NUC_6.L_CORE X_NUC_35.L_CORE 0.004568
K_340 X_NUC_6.L_CORE X_NUC_36.L_CORE 0.004514
K_341 X_NUC_6.L_CORE X_NUC_37.L_CORE 0.006670
K_342 X_NUC_6.L_CORE X_NUC_38.L_CORE 0.006620
K_343 X_NUC_6.L_CORE X_NUC_39.L_CORE 0.006479
K_344 X_NUC_6.L_CORE X_NUC_40.L_CORE 0.006539
K_345 X_NUC_6.L_CORE X_NUC_41.L_CORE 0.003950
K_346 X_NUC_6.L_CORE X_NUC_42.L_CORE 0.004008
K_347 X_NUC_6.L_CORE X_NUC_43.L_CORE 0.003940
K_348 X_NUC_6.L_CORE X_NUC_44.L_CORE 0.003951
K_349 X_NUC_6.L_CORE X_NUC_45.L_CORE 0.004907
K_350 X_NUC_6.L_CORE X_NUC_46.L_CORE 0.004924
K_351 X_NUC_6.L_CORE X_NUC_47.L_CORE 0.004874
K_352 X_NUC_6.L_CORE X_NUC_48.L_CORE 0.004818
K_353 X_NUC_6.L_CORE X_NUC_49.L_CORE 0.004556
K_354 X_NUC_6.L_CORE X_NUC_50.L_CORE 0.004581
K_355 X_NUC_6.L_CORE X_NUC_51.L_CORE 0.004487
K_356 X_NUC_6.L_CORE X_NUC_52.L_CORE 0.004527
K_357 X_NUC_6.L_CORE X_NUC_53.L_CORE 0.003839
K_358 X_NUC_6.L_CORE X_NUC_54.L_CORE 0.003880
K_359 X_NUC_6.L_CORE X_NUC_55.L_CORE 0.003825
K_360 X_NUC_6.L_CORE X_NUC_56.L_CORE 0.003813
K_361 X_NUC_6.L_CORE X_NUC_57.L_CORE 0.004359
K_362 X_NUC_6.L_CORE X_NUC_58.L_CORE 0.004372
K_363 X_NUC_6.L_CORE X_NUC_59.L_CORE 0.004305
K_364 X_NUC_6.L_CORE X_NUC_60.L_CORE 0.004300
K_365 X_NUC_6.L_CORE X_NUC_61.L_CORE 0.005992
K_366 X_NUC_6.L_CORE X_NUC_62.L_CORE 0.012684
K_367 X_NUC_6.L_CORE X_NUC_63.L_CORE 0.003987
K_368 X_NUC_6.L_CORE X_NUC_64.L_CORE 0.004254
K_369 X_NUC_6.L_CORE X_NUC_65.L_CORE 0.004030
K_370 X_NUC_7.L_CORE X_NUC_8.L_CORE 0.207973
K_371 X_NUC_7.L_CORE X_NUC_9.L_CORE 0.006033
K_372 X_NUC_7.L_CORE X_NUC_10.L_CORE 0.006201
K_373 X_NUC_7.L_CORE X_NUC_11.L_CORE 0.006073
K_374 X_NUC_7.L_CORE X_NUC_12.L_CORE 0.006135
K_375 X_NUC_7.L_CORE X_NUC_13.L_CORE 0.007323
K_376 X_NUC_7.L_CORE X_NUC_14.L_CORE 0.007447
K_377 X_NUC_7.L_CORE X_NUC_15.L_CORE 0.007452
K_378 X_NUC_7.L_CORE X_NUC_16.L_CORE 0.007232
K_379 X_NUC_7.L_CORE X_NUC_17.L_CORE 0.009526
K_380 X_NUC_7.L_CORE X_NUC_18.L_CORE 0.009566
K_381 X_NUC_7.L_CORE X_NUC_19.L_CORE 0.009221
K_382 X_NUC_7.L_CORE X_NUC_20.L_CORE 0.009590
K_383 X_NUC_7.L_CORE X_NUC_21.L_CORE 0.004621
K_384 X_NUC_7.L_CORE X_NUC_22.L_CORE 0.004719
K_385 X_NUC_7.L_CORE X_NUC_23.L_CORE 0.004654
K_386 X_NUC_7.L_CORE X_NUC_24.L_CORE 0.004638
K_387 X_NUC_7.L_CORE X_NUC_25.L_CORE 0.008795
K_388 X_NUC_7.L_CORE X_NUC_26.L_CORE 0.008686
K_389 X_NUC_7.L_CORE X_NUC_27.L_CORE 0.008660
K_390 X_NUC_7.L_CORE X_NUC_28.L_CORE 0.008449
K_391 X_NUC_7.L_CORE X_NUC_29.L_CORE 0.005087
K_392 X_NUC_7.L_CORE X_NUC_30.L_CORE 0.005163
K_393 X_NUC_7.L_CORE X_NUC_31.L_CORE 0.005041
K_394 X_NUC_7.L_CORE X_NUC_32.L_CORE 0.005116
K_395 X_NUC_7.L_CORE X_NUC_33.L_CORE 0.004592
K_396 X_NUC_7.L_CORE X_NUC_34.L_CORE 0.004655
K_397 X_NUC_7.L_CORE X_NUC_35.L_CORE 0.004612
K_398 X_NUC_7.L_CORE X_NUC_36.L_CORE 0.004555
K_399 X_NUC_7.L_CORE X_NUC_37.L_CORE 0.006821
K_400 X_NUC_7.L_CORE X_NUC_38.L_CORE 0.006764
K_401 X_NUC_7.L_CORE X_NUC_39.L_CORE 0.006620
K_402 X_NUC_7.L_CORE X_NUC_40.L_CORE 0.006680
K_403 X_NUC_7.L_CORE X_NUC_41.L_CORE 0.004018
K_404 X_NUC_7.L_CORE X_NUC_42.L_CORE 0.004079
K_405 X_NUC_7.L_CORE X_NUC_43.L_CORE 0.004008
K_406 X_NUC_7.L_CORE X_NUC_44.L_CORE 0.004019
K_407 X_NUC_7.L_CORE X_NUC_45.L_CORE 0.004956
K_408 X_NUC_7.L_CORE X_NUC_46.L_CORE 0.004972
K_409 X_NUC_7.L_CORE X_NUC_47.L_CORE 0.004924
K_410 X_NUC_7.L_CORE X_NUC_48.L_CORE 0.004865
K_411 X_NUC_7.L_CORE X_NUC_49.L_CORE 0.004653
K_412 X_NUC_7.L_CORE X_NUC_50.L_CORE 0.004679
K_413 X_NUC_7.L_CORE X_NUC_51.L_CORE 0.004581
K_414 X_NUC_7.L_CORE X_NUC_52.L_CORE 0.004622
K_415 X_NUC_7.L_CORE X_NUC_53.L_CORE 0.003894
K_416 X_NUC_7.L_CORE X_NUC_54.L_CORE 0.003935
K_417 X_NUC_7.L_CORE X_NUC_55.L_CORE 0.003880
K_418 X_NUC_7.L_CORE X_NUC_56.L_CORE 0.003866
K_419 X_NUC_7.L_CORE X_NUC_57.L_CORE 0.004428
K_420 X_NUC_7.L_CORE X_NUC_58.L_CORE 0.004441
K_421 X_NUC_7.L_CORE X_NUC_59.L_CORE 0.004372
K_422 X_NUC_7.L_CORE X_NUC_60.L_CORE 0.004367
K_423 X_NUC_7.L_CORE X_NUC_61.L_CORE 0.006012
K_424 X_NUC_7.L_CORE X_NUC_62.L_CORE 0.012636
K_425 X_NUC_7.L_CORE X_NUC_63.L_CORE 0.004058
K_426 X_NUC_7.L_CORE X_NUC_64.L_CORE 0.004281
K_427 X_NUC_7.L_CORE X_NUC_65.L_CORE 0.004099
K_428 X_NUC_8.L_CORE X_NUC_9.L_CORE 0.005972
K_429 X_NUC_8.L_CORE X_NUC_10.L_CORE 0.006135
K_430 X_NUC_8.L_CORE X_NUC_11.L_CORE 0.006008
K_431 X_NUC_8.L_CORE X_NUC_12.L_CORE 0.006073
K_432 X_NUC_8.L_CORE X_NUC_13.L_CORE 0.007546
K_433 X_NUC_8.L_CORE X_NUC_14.L_CORE 0.007682
K_434 X_NUC_8.L_CORE X_NUC_15.L_CORE 0.007681
K_435 X_NUC_8.L_CORE X_NUC_16.L_CORE 0.007452
K_436 X_NUC_8.L_CORE X_NUC_17.L_CORE 0.009155
K_437 X_NUC_8.L_CORE X_NUC_18.L_CORE 0.009191
K_438 X_NUC_8.L_CORE X_NUC_19.L_CORE 0.008876
K_439 X_NUC_8.L_CORE X_NUC_20.L_CORE 0.009221
K_440 X_NUC_8.L_CORE X_NUC_21.L_CORE 0.004635
K_441 X_NUC_8.L_CORE X_NUC_22.L_CORE 0.004735
K_442 X_NUC_8.L_CORE X_NUC_23.L_CORE 0.004668
K_443 X_NUC_8.L_CORE X_NUC_24.L_CORE 0.004654
K_444 X_NUC_8.L_CORE X_NUC_25.L_CORE 0.009026
K_445 X_NUC_8.L_CORE X_NUC_26.L_CORE 0.008909
K_446 X_NUC_8.L_CORE X_NUC_27.L_CORE 0.008873
K_447 X_NUC_8.L_CORE X_NUC_28.L_CORE 0.008660
K_448 X_NUC_8.L_CORE X_NUC_29.L_CORE 0.005012
K_449 X_NUC_8.L_CORE X_NUC_30.L_CORE 0.005085
K_450 X_NUC_8.L_CORE X_NUC_31.L_CORE 0.004967
K_451 X_NUC_8.L_CORE X_NUC_32.L_CORE 0.005041
K_452 X_NUC_8.L_CORE X_NUC_33.L_CORE 0.004649
K_453 X_NUC_8.L_CORE X_NUC_34.L_CORE 0.004715
K_454 X_NUC_8.L_CORE X_NUC_35.L_CORE 0.004669
K_455 X_NUC_8.L_CORE X_NUC_36.L_CORE 0.004612
K_456 X_NUC_8.L_CORE X_NUC_37.L_CORE 0.006753
K_457 X_NUC_8.L_CORE X_NUC_38.L_CORE 0.006698
K_458 X_NUC_8.L_CORE X_NUC_39.L_CORE 0.006555
K_459 X_NUC_8.L_CORE X_NUC_40.L_CORE 0.006620
K_460 X_NUC_8.L_CORE X_NUC_41.L_CORE 0.004006
K_461 X_NUC_8.L_CORE X_NUC_42.L_CORE 0.004067
K_462 X_NUC_8.L_CORE X_NUC_43.L_CORE 0.003996
K_463 X_NUC_8.L_CORE X_NUC_44.L_CORE 0.004008
K_464 X_NUC_8.L_CORE X_NUC_45.L_CORE 0.005017
K_465 X_NUC_8.L_CORE X_NUC_46.L_CORE 0.005033
K_466 X_NUC_8.L_CORE X_NUC_47.L_CORE 0.004981
K_467 X_NUC_8.L_CORE X_NUC_48.L_CORE 0.004924
K_468 X_NUC_8.L_CORE X_NUC_49.L_CORE 0.004610
K_469 X_NUC_8.L_CORE X_NUC_50.L_CORE 0.004635
K_470 X_NUC_8.L_CORE X_NUC_51.L_CORE 0.004539
K_471 X_NUC_8.L_CORE X_NUC_52.L_CORE 0.004581
K_472 X_NUC_8.L_CORE X_NUC_53.L_CORE 0.003907
K_473 X_NUC_8.L_CORE X_NUC_54.L_CORE 0.003949
K_474 X_NUC_8.L_CORE X_NUC_55.L_CORE 0.003892
K_475 X_NUC_8.L_CORE X_NUC_56.L_CORE 0.003880
K_476 X_NUC_8.L_CORE X_NUC_57.L_CORE 0.004433
K_477 X_NUC_8.L_CORE X_NUC_58.L_CORE 0.004446
K_478 X_NUC_8.L_CORE X_NUC_59.L_CORE 0.004376
K_479 X_NUC_8.L_CORE X_NUC_60.L_CORE 0.004372
K_480 X_NUC_8.L_CORE X_NUC_61.L_CORE 0.006089
K_481 X_NUC_8.L_CORE X_NUC_62.L_CORE 0.012607
K_482 X_NUC_8.L_CORE X_NUC_63.L_CORE 0.004026
K_483 X_NUC_8.L_CORE X_NUC_64.L_CORE 0.004339
K_484 X_NUC_8.L_CORE X_NUC_65.L_CORE 0.004074
K_485 X_NUC_9.L_CORE X_NUC_10.L_CORE 0.207973
K_486 X_NUC_9.L_CORE X_NUC_11.L_CORE 0.207973
K_487 X_NUC_9.L_CORE X_NUC_12.L_CORE 0.207973
K_488 X_NUC_9.L_CORE X_NUC_13.L_CORE 0.005145
K_489 X_NUC_9.L_CORE X_NUC_14.L_CORE 0.005087
K_490 X_NUC_9.L_CORE X_NUC_15.L_CORE 0.005163
K_491 X_NUC_9.L_CORE X_NUC_16.L_CORE 0.005053
K_492 X_NUC_9.L_CORE X_NUC_17.L_CORE 0.006603
K_493 X_NUC_9.L_CORE X_NUC_18.L_CORE 0.006411
K_494 X_NUC_9.L_CORE X_NUC_19.L_CORE 0.006448
K_495 X_NUC_9.L_CORE X_NUC_20.L_CORE 0.006494
K_496 X_NUC_9.L_CORE X_NUC_21.L_CORE 0.008733
K_497 X_NUC_9.L_CORE X_NUC_22.L_CORE 0.008883
K_498 X_NUC_9.L_CORE X_NUC_23.L_CORE 0.008829
K_499 X_NUC_9.L_CORE X_NUC_24.L_CORE 0.008546
K_500 X_NUC_9.L_CORE X_NUC_25.L_CORE 0.004234
K_501 X_NUC_9.L_CORE X_NUC_26.L_CORE 0.004167
K_502 X_NUC_9.L_CORE X_NUC_27.L_CORE 0.004204
K_503 X_NUC_9.L_CORE X_NUC_28.L_CORE 0.004160
K_504 X_NUC_9.L_CORE X_NUC_29.L_CORE 0.008896
K_505 X_NUC_9.L_CORE X_NUC_30.L_CORE 0.008772
K_506 X_NUC_9.L_CORE X_NUC_31.L_CORE 0.008538
K_507 X_NUC_9.L_CORE X_NUC_32.L_CORE 0.008730
K_508 X_NUC_9.L_CORE X_NUC_33.L_CORE 0.004789
K_509 X_NUC_9.L_CORE X_NUC_34.L_CORE 0.004777
K_510 X_NUC_9.L_CORE X_NUC_35.L_CORE 0.004791
K_511 X_NUC_9.L_CORE X_NUC_36.L_CORE 0.004699
K_512 X_NUC_9.L_CORE X_NUC_37.L_CORE 0.004412
K_513 X_NUC_9.L_CORE X_NUC_38.L_CORE 0.004334
K_514 X_NUC_9.L_CORE X_NUC_39.L_CORE 0.004341
K_515 X_NUC_9.L_CORE X_NUC_40.L_CORE 0.004335
K_516 X_NUC_9.L_CORE X_NUC_41.L_CORE 0.006855
K_517 X_NUC_9.L_CORE X_NUC_42.L_CORE 0.006911
K_518 X_NUC_9.L_CORE X_NUC_43.L_CORE 0.006748
K_519 X_NUC_9.L_CORE X_NUC_44.L_CORE 0.006716
K_520 X_NUC_9.L_CORE X_NUC_45.L_CORE 0.003893
K_521 X_NUC_9.L_CORE X_NUC_46.L_CORE 0.003857
K_522 X_NUC_9.L_CORE X_NUC_47.L_CORE 0.003866
K_523 X_NUC_9.L_CORE X_NUC_48.L_CORE 0.003822
K_524 X_NUC_9.L_CORE X_NUC_49.L_CORE 0.004929
K_525 X_NUC_9.L_CORE X_NUC_50.L_CORE 0.004871
K_526 X_NUC_9.L_CORE X_NUC_51.L_CORE 0.004823
K_527 X_NUC_9.L_CORE X_NUC_52.L_CORE 0.004840
K_528 X_NUC_9.L_CORE X_NUC_53.L_CORE 0.004581
K_529 X_NUC_9.L_CORE X_NUC_54.L_CORE 0.004576
K_530 X_NUC_9.L_CORE X_NUC_55.L_CORE 0.004540
K_531 X_NUC_9.L_CORE X_NUC_56.L_CORE 0.004494
K_532 X_NUC_9.L_CORE X_NUC_57.L_CORE 0.003980
K_533 X_NUC_9.L_CORE X_NUC_58.L_CORE 0.003944
K_534 X_NUC_9.L_CORE X_NUC_59.L_CORE 0.003928
K_535 X_NUC_9.L_CORE X_NUC_60.L_CORE 0.003908
K_536 X_NUC_9.L_CORE X_NUC_61.L_CORE 0.007292
K_537 X_NUC_9.L_CORE X_NUC_62.L_CORE 0.004300
K_538 X_NUC_9.L_CORE X_NUC_63.L_CORE 0.009241
K_539 X_NUC_9.L_CORE X_NUC_64.L_CORE 0.003620
K_540 X_NUC_9.L_CORE X_NUC_65.L_CORE 0.003919
K_541 X_NUC_10.L_CORE X_NUC_11.L_CORE 0.207973
K_542 X_NUC_10.L_CORE X_NUC_12.L_CORE 0.207973
K_543 X_NUC_10.L_CORE X_NUC_13.L_CORE 0.005203
K_544 X_NUC_10.L_CORE X_NUC_14.L_CORE 0.005145
K_545 X_NUC_10.L_CORE X_NUC_15.L_CORE 0.005223
K_546 X_NUC_10.L_CORE X_NUC_16.L_CORE 0.005109
K_547 X_NUC_10.L_CORE X_NUC_17.L_CORE 0.006807
K_548 X_NUC_10.L_CORE X_NUC_18.L_CORE 0.006603
K_549 X_NUC_10.L_CORE X_NUC_19.L_CORE 0.006641
K_550 X_NUC_10.L_CORE X_NUC_20.L_CORE 0.006691
K_551 X_NUC_10.L_CORE X_NUC_21.L_CORE 0.008575
K_552 X_NUC_10.L_CORE X_NUC_22.L_CORE 0.008733
K_553 X_NUC_10.L_CORE X_NUC_23.L_CORE 0.008674
K_554 X_NUC_10.L_CORE X_NUC_24.L_CORE 0.008405
K_555 X_NUC_10.L_CORE X_NUC_25.L_CORE 0.004303
K_556 X_NUC_10.L_CORE X_NUC_26.L_CORE 0.004234
K_557 X_NUC_10.L_CORE X_NUC_27.L_CORE 0.004273
K_558 X_NUC_10.L_CORE X_NUC_28.L_CORE 0.004226
K_559 X_NUC_10.L_CORE X_NUC_29.L_CORE 0.009009
K_560 X_NUC_10.L_CORE X_NUC_30.L_CORE 0.008896
K_561 X_NUC_10.L_CORE X_NUC_31.L_CORE 0.008646
K_562 X_NUC_10.L_CORE X_NUC_32.L_CORE 0.008845
K_563 X_NUC_10.L_CORE X_NUC_33.L_CORE 0.004798
K_564 X_NUC_10.L_CORE X_NUC_34.L_CORE 0.004789
K_565 X_NUC_10.L_CORE X_NUC_35.L_CORE 0.004801
K_566 X_NUC_10.L_CORE X_NUC_36.L_CORE 0.004709
K_567 X_NUC_10.L_CORE X_NUC_37.L_CORE 0.004492
K_568 X_NUC_10.L_CORE X_NUC_38.L_CORE 0.004412
K_569 X_NUC_10.L_CORE X_NUC_39.L_CORE 0.004418
K_570 X_NUC_10.L_CORE X_NUC_40.L_CORE 0.004412
K_571 X_NUC_10.L_CORE X_NUC_41.L_CORE 0.006794
K_572 X_NUC_10.L_CORE X_NUC_42.L_CORE 0.006855
K_573 X_NUC_10.L_CORE X_NUC_43.L_CORE 0.006693
K_574 X_NUC_10.L_CORE X_NUC_44.L_CORE 0.006661
K_575 X_NUC_10.L_CORE X_NUC_45.L_CORE 0.003928
K_576 X_NUC_10.L_CORE X_NUC_46.L_CORE 0.003893
K_577 X_NUC_10.L_CORE X_NUC_47.L_CORE 0.003901
K_578 X_NUC_10.L_CORE X_NUC_48.L_CORE 0.003856
K_579 X_NUC_10.L_CORE X_NUC_49.L_CORE 0.004986
K_580 X_NUC_10.L_CORE X_NUC_50.L_CORE 0.004929
K_581 X_NUC_10.L_CORE X_NUC_51.L_CORE 0.004877
K_582 X_NUC_10.L_CORE X_NUC_52.L_CORE 0.004895
K_583 X_NUC_10.L_CORE X_NUC_53.L_CORE 0.004584
K_584 X_NUC_10.L_CORE X_NUC_54.L_CORE 0.004581
K_585 X_NUC_10.L_CORE X_NUC_55.L_CORE 0.004544
K_586 X_NUC_10.L_CORE X_NUC_56.L_CORE 0.004498
K_587 X_NUC_10.L_CORE X_NUC_57.L_CORE 0.004017
K_588 X_NUC_10.L_CORE X_NUC_58.L_CORE 0.003980
K_589 X_NUC_10.L_CORE X_NUC_59.L_CORE 0.003964
K_590 X_NUC_10.L_CORE X_NUC_60.L_CORE 0.003943
K_591 X_NUC_10.L_CORE X_NUC_61.L_CORE 0.007304
K_592 X_NUC_10.L_CORE X_NUC_62.L_CORE 0.004387
K_593 X_NUC_10.L_CORE X_NUC_63.L_CORE 0.009061
K_594 X_NUC_10.L_CORE X_NUC_64.L_CORE 0.003641
K_595 X_NUC_10.L_CORE X_NUC_65.L_CORE 0.003957
K_596 X_NUC_11.L_CORE X_NUC_12.L_CORE 0.207973
K_597 X_NUC_11.L_CORE X_NUC_13.L_CORE 0.005125
K_598 X_NUC_11.L_CORE X_NUC_14.L_CORE 0.005068